<?xml version="1.0" encoding="UTF-8"?>

<!-- generated on 2021-09-11 03:43:40 by Eclipse SUMO netedit Version 1.9.1
<configuration xmlns:xsi="http://www.w3.org/2001/XMLSchema-instance" xsi:noNamespaceSchemaLocation="http://sumo.dlr.de/xsd/netconvertConfiguration.xsd">

    <input>
        <sumo-net-file value="D:\Github\Crash%20time%20analysis%20with%20SUMO\I75_121_zz.net.xml"/>
    </input>

    <output>
        <output-file value="D:\Github\Crash%20time%20analysis%20with%20SUMO\I75_121_zz.net.xml"/>
    </output>

    <processing>
        <geometry.min-radius.fix.railways value="false"/>
        <geometry.max-grade.fix value="false"/>
        <offset.disable-normalization value="true"/>
        <lefthand value="false"/>
    </processing>

    <junctions>
        <no-turnarounds value="true"/>
        <junctions.corner-detail value="5"/>
        <junctions.limit-turn-speed value="5.5"/>
        <rectangular-lane-cut value="false"/>
    </junctions>

    <pedestrian>
        <walkingareas value="false"/>
    </pedestrian>

    <report>
        <aggregate-warnings value="5"/>
    </report>

</configuration>
-->

<net version="1.9" junctionCornerDetail="5" limitTurnSpeed="5.50" xmlns:xsi="http://www.w3.org/2001/XMLSchema-instance" xsi:noNamespaceSchemaLocation="http://sumo.dlr.de/xsd/net_file.xsd">

    <location netOffset="-365804.70,-3274504.91" convBoundary="0.00,0.00,1942.46,2656.34" origBoundary="-82.386018,29.593349,-82.365639,29.617110" projParameter="+proj=utm +zone=17 +ellps=WGS84 +datum=WGS84 +units=m +no_defs"/>

    <type id="highway.bridleway" priority="1" numLanes="1" speed="2.78" allow="pedestrian" oneway="1" width="2.00"/>
    <type id="highway.bus_guideway" priority="1" numLanes="1" speed="27.78" allow="bus" oneway="1"/>
    <type id="highway.cycleway" priority="1" numLanes="1" speed="8.33" allow="bicycle" oneway="1" width="1.00"/>
    <type id="highway.footway" priority="1" numLanes="1" speed="2.78" allow="pedestrian" oneway="1" width="2.00"/>
    <type id="highway.ford" priority="1" numLanes="1" speed="2.78" allow="army" oneway="1"/>
    <type id="highway.living_street" priority="2" numLanes="1" speed="2.78" disallow="tram rail_urban rail rail_electric rail_fast ship" oneway="1"/>
    <type id="highway.motorway" priority="14" numLanes="2" speed="39.44" allow="private emergency authority army vip passenger hov taxi bus coach delivery truck trailer motorcycle evehicle custom1 custom2" oneway="1"/>
    <type id="highway.motorway_link" priority="9" numLanes="1" speed="22.22" allow="private emergency authority army vip passenger hov taxi bus coach delivery truck trailer motorcycle evehicle custom1 custom2" oneway="1"/>
    <type id="highway.path" priority="1" numLanes="1" speed="2.78" allow="pedestrian bicycle" oneway="1" width="2.00"/>
    <type id="highway.pedestrian" priority="1" numLanes="1" speed="2.78" allow="pedestrian" oneway="1" width="2.00"/>
    <type id="highway.primary" priority="12" numLanes="2" speed="27.78" disallow="tram rail_urban rail rail_electric rail_fast ship" oneway="1"/>
    <type id="highway.primary_link" priority="7" numLanes="1" speed="22.22" disallow="tram rail_urban rail rail_electric rail_fast ship" oneway="1"/>
    <type id="highway.raceway" priority="15" numLanes="2" speed="83.33" allow="vip" oneway="1"/>
    <type id="highway.residential" priority="3" numLanes="1" speed="13.89" disallow="tram rail_urban rail rail_electric rail_fast ship" oneway="1"/>
    <type id="highway.secondary" priority="11" numLanes="1" speed="27.78" disallow="tram rail_urban rail rail_electric rail_fast ship" oneway="1"/>
    <type id="highway.secondary_link" priority="6" numLanes="1" speed="22.22" disallow="tram rail_urban rail rail_electric rail_fast ship" oneway="1"/>
    <type id="highway.service" priority="1" numLanes="1" speed="5.56" allow="pedestrian delivery bicycle" oneway="1"/>
    <type id="highway.stairs" priority="1" numLanes="1" speed="1.39" allow="pedestrian" oneway="1" width="2.00"/>
    <type id="highway.step" priority="1" numLanes="1" speed="1.39" allow="pedestrian" oneway="1" width="2.00"/>
    <type id="highway.steps" priority="1" numLanes="1" speed="1.39" allow="pedestrian" oneway="1" width="2.00"/>
    <type id="highway.tertiary" priority="10" numLanes="1" speed="22.22" disallow="tram rail_urban rail rail_electric rail_fast ship" oneway="1"/>
    <type id="highway.tertiary_link" priority="5" numLanes="1" speed="22.22" disallow="tram rail_urban rail rail_electric rail_fast ship" oneway="1"/>
    <type id="highway.track" priority="1" numLanes="1" speed="5.56" allow="pedestrian motorcycle moped bicycle" oneway="1"/>
    <type id="highway.trunk" priority="13" numLanes="2" speed="27.78" disallow="pedestrian bicycle tram rail_urban rail rail_electric rail_fast ship" oneway="1"/>
    <type id="highway.trunk_link" priority="8" numLanes="1" speed="22.22" disallow="pedestrian bicycle tram rail_urban rail rail_electric rail_fast ship" oneway="1"/>
    <type id="highway.unclassified" priority="4" numLanes="1" speed="13.89" disallow="tram rail_urban rail rail_electric rail_fast ship" oneway="1"/>
    <type id="highway.unsurfaced" priority="1" numLanes="1" speed="8.33" disallow="tram rail_urban rail rail_electric rail_fast ship" oneway="1"/>
    <type id="railway.highspeed" priority="21" numLanes="1" speed="69.44" allow="rail_fast" oneway="1"/>
    <type id="railway.light_rail" priority="19" numLanes="1" speed="27.78" allow="rail_urban" oneway="1"/>
    <type id="railway.preserved" priority="16" numLanes="1" speed="27.78" allow="rail" oneway="1"/>
    <type id="railway.rail" priority="20" numLanes="1" speed="44.44" allow="rail" oneway="1"/>
    <type id="railway.subway" priority="18" numLanes="1" speed="27.78" allow="rail_urban" oneway="1"/>
    <type id="railway.tram" priority="17" numLanes="1" speed="13.89" allow="tram" oneway="1"/>

    <edge id=":2166336961_0" function="internal">
        <lane id=":2166336961_0_0" index="0" allow="private emergency authority army vip passenger hov taxi bus coach delivery truck trailer motorcycle evehicle custom1 custom2" speed="22.22" length="0.10" shape="1301.17,1056.24 1301.17,1056.24"/>
    </edge>
    <edge id=":L2_0" function="internal">
        <lane id=":L2_0_0" index="0" allow="private emergency authority army vip passenger hov taxi bus coach delivery truck trailer motorcycle evehicle custom1 custom2" speed="31.29" length="9.72" shape="1349.01,761.60 1351.17,760.04 1353.35,759.91 1355.54,759.78 1357.70,758.22"/>
        <lane id=":L2_0_1" index="1" allow="private emergency authority army vip passenger hov taxi bus coach delivery truck trailer motorcycle evehicle custom1 custom2" speed="31.29" length="9.72" shape="1351.54,763.56 1353.70,762.00 1355.88,761.87 1358.07,761.74 1360.23,760.18"/>
        <lane id=":L2_0_2" index="2" allow="private emergency authority army vip passenger hov taxi bus coach delivery truck trailer motorcycle evehicle custom1 custom2" speed="31.29" length="9.72" shape="1354.07,765.52 1356.23,763.96 1358.41,763.83 1360.60,763.70 1362.76,762.14"/>
    </edge>
    <edge id=":L23_0" function="internal">
        <lane id=":L23_0_0" index="0" allow="private emergency authority army vip passenger hov taxi bus coach delivery truck trailer motorcycle evehicle custom1 custom2" speed="31.29" length="0.43" shape="1214.82,934.98 1214.99,934.75"/>
        <lane id=":L23_0_1" index="1" allow="private emergency authority army vip passenger hov taxi bus coach delivery truck trailer motorcycle evehicle custom1 custom2" speed="31.29" length="0.43" shape="1217.33,936.96 1217.57,936.65"/>
        <lane id=":L23_0_2" index="2" allow="private emergency authority army vip passenger hov taxi bus coach delivery truck trailer motorcycle evehicle custom1 custom2" speed="31.29" length="0.43" shape="1219.85,938.94 1220.14,938.55"/>
        <lane id=":L23_0_3" index="3" allow="private emergency authority army vip passenger hov taxi bus coach delivery truck trailer motorcycle evehicle custom1 custom2" speed="31.29" length="0.43" shape="1222.36,940.92 1222.71,940.46"/>
    </edge>
    <edge id=":L3_0" function="internal">
        <lane id=":L3_0_0" index="0" allow="private emergency authority army vip passenger hov taxi bus coach delivery truck trailer motorcycle evehicle custom1 custom2" speed="26.75" length="5.71" shape="1163.88,1007.80 1161.59,1002.57"/>
    </edge>
    <edge id=":L3_1" function="internal">
        <lane id=":L3_1_0" index="0" allow="private emergency authority army vip passenger hov taxi bus coach delivery truck trailer motorcycle evehicle custom1 custom2" speed="31.29" length="6.14" shape="1166.43,1010.27 1164.11,1004.55"/>
        <lane id=":L3_1_1" index="1" allow="private emergency authority army vip passenger hov taxi bus coach delivery truck trailer motorcycle evehicle custom1 custom2" speed="31.29" length="6.14" shape="1168.98,1012.20 1166.62,1006.53"/>
        <lane id=":L3_1_2" index="2" allow="private emergency authority army vip passenger hov taxi bus coach delivery truck trailer motorcycle evehicle custom1 custom2" speed="31.29" length="6.14" shape="1171.54,1014.12 1169.13,1008.51"/>
    </edge>
    <edge id=":L4_0" function="internal">
        <lane id=":L4_0_0" index="0" allow="private emergency authority army vip passenger hov taxi bus coach delivery truck trailer motorcycle evehicle custom1 custom2" speed="26.75" length="10.21" shape="1000.83,1225.26 1002.55,1222.78 1003.49,1220.91 1004.23,1218.94 1005.38,1216.17"/>
    </edge>
    <edge id=":L4_1" function="internal">
        <lane id=":L4_1_0" index="0" allow="private emergency authority army vip passenger hov taxi bus coach delivery truck trailer motorcycle evehicle custom1 custom2" speed="31.29" length="10.55" shape="1003.37,1227.20 1005.05,1224.59 1005.88,1222.59 1006.72,1220.60 1008.40,1217.98"/>
        <lane id=":L4_1_1" index="1" allow="private emergency authority army vip passenger hov taxi bus coach delivery truck trailer motorcycle evehicle custom1 custom2" speed="31.29" length="10.55" shape="1005.91,1229.15 1007.59,1226.54 1008.43,1224.54 1009.26,1222.54 1010.94,1219.93"/>
        <lane id=":L4_1_2" index="2" allow="private emergency authority army vip passenger hov taxi bus coach delivery truck trailer motorcycle evehicle custom1 custom2" speed="31.29" length="10.55" shape="1008.45,1231.10 1010.13,1228.48 1010.97,1226.48 1011.80,1224.49 1013.48,1221.87"/>
    </edge>
    <edge id=":L5_0" function="internal">
        <lane id=":L5_0_0" index="0" allow="private emergency authority army vip passenger hov taxi bus coach delivery truck trailer motorcycle evehicle custom1 custom2" speed="31.29" length="8.21" shape="968.98,1269.47 970.24,1267.41 970.77,1265.81 971.31,1264.20 972.57,1262.15"/>
        <lane id=":L5_0_1" index="1" allow="private emergency authority army vip passenger hov taxi bus coach delivery truck trailer motorcycle evehicle custom1 custom2" speed="31.29" length="8.21" shape="968.98,1269.47 970.63,1267.72 972.04,1266.78 973.46,1265.84 975.11,1264.09"/>
        <lane id=":L5_0_2" index="2" allow="private emergency authority army vip passenger hov taxi bus coach delivery truck trailer motorcycle evehicle custom1 custom2" speed="31.29" length="8.21" shape="971.52,1271.42 973.17,1269.66 974.59,1268.73 976.00,1267.79 977.65,1266.04"/>
        <lane id=":L5_0_3" index="3" allow="private emergency authority army vip passenger hov taxi bus coach delivery truck trailer motorcycle evehicle custom1 custom2" speed="31.29" length="8.21" shape="974.06,1273.36 975.71,1271.61 977.13,1270.67 978.54,1269.73 980.19,1267.98"/>
    </edge>
    <edge id=":LS3_0" function="internal">
        <lane id=":LS3_0_0" index="0" allow="private emergency authority army vip passenger hov taxi bus coach delivery truck trailer motorcycle evehicle custom1 custom2" speed="22.22" length="16.38" shape="1091.81,930.19 1088.45,932.32 1085.01,934.79 1081.79,937.51 1079.10,940.40"/>
    </edge>
    <edge id=":LS3_1" function="internal">
        <lane id=":LS3_1_0" index="0" allow="private emergency authority army vip passenger hov taxi bus coach delivery truck trailer motorcycle evehicle custom1 custom2" speed="22.22" length="16.34" shape="1089.17,927.54 1079.10,940.40"/>
    </edge>
    <edge id=":LS4_0" function="internal">
        <lane id=":LS4_0_0" index="0" allow="private emergency authority army vip passenger hov taxi bus coach delivery truck trailer motorcycle evehicle custom1 custom2" speed="22.22" length="8.46" shape="1031.87,1138.72 1031.77,1136.26 1030.92,1134.61 1030.03,1132.96 1029.84,1130.48"/>
        <lane id=":LS4_0_1" index="1" allow="private emergency authority army vip passenger hov taxi bus coach delivery truck trailer motorcycle evehicle custom1 custom2" speed="22.22" length="8.46" shape="1031.87,1138.72 1033.01,1130.88"/>
        <lane id=":LS4_0_2" index="2" allow="private emergency authority army vip passenger hov taxi bus coach delivery truck trailer motorcycle evehicle custom1 custom2" speed="22.22" length="8.46" shape="1031.87,1138.72 1032.77,1136.37 1034.09,1135.01 1035.39,1133.64 1036.19,1131.28"/>
    </edge>
    <edge id=":LS41_0" function="internal">
        <lane id=":LS41_0_0" index="0" allow="private emergency authority army vip passenger hov taxi bus coach delivery truck trailer motorcycle evehicle custom1 custom2" speed="22.22" length="6.68" shape="1074.58,920.63 1075.73,919.03 1076.38,917.84 1076.90,916.57 1077.68,914.75"/>
    </edge>
    <edge id=":LS41_1" function="internal">
        <lane id=":LS41_1_0" index="0" allow="private emergency authority army vip passenger hov taxi bus coach delivery truck trailer motorcycle evehicle custom1 custom2" speed="22.22" length="6.88" shape="1077.11,922.59 1078.25,920.88 1078.86,919.59 1079.50,918.32 1080.71,916.66"/>
        <lane id=":LS41_1_1" index="1" allow="private emergency authority army vip passenger hov taxi bus coach delivery truck trailer motorcycle evehicle custom1 custom2" speed="22.22" length="6.88" shape="1079.64,924.55 1080.76,922.87 1081.35,921.60 1081.97,920.36 1083.15,918.73"/>
    </edge>
    <edge id=":LSM_0" function="internal">
        <lane id=":LSM_0_0" index="0" allow="private emergency authority army vip passenger hov taxi bus coach delivery truck trailer motorcycle evehicle custom1 custom2" speed="5.58" length="11.53" shape="1105.87,896.66 1109.53,895.09 1111.34,895.19 1111.30,896.98 1109.40,900.45"/>
    </edge>
    <edge id=":R2_0" function="internal">
        <lane id=":R2_0_0" index="0" allow="private emergency authority army vip passenger hov taxi bus coach delivery truck trailer motorcycle evehicle custom1 custom2" speed="31.29" length="8.21" shape="1246.74,954.83 1245.47,956.87 1244.92,958.48 1244.37,960.08 1243.09,962.12"/>
        <lane id=":R2_0_1" index="1" allow="private emergency authority army vip passenger hov taxi bus coach delivery truck trailer motorcycle evehicle custom1 custom2" speed="31.29" length="8.21" shape="1246.74,954.83 1245.07,956.57 1243.65,957.49 1242.24,958.42 1240.57,960.16"/>
        <lane id=":R2_0_2" index="2" allow="private emergency authority army vip passenger hov taxi bus coach delivery truck trailer motorcycle evehicle custom1 custom2" speed="31.29" length="8.21" shape="1244.22,952.86 1242.55,954.60 1241.13,955.53 1239.71,956.46 1238.04,958.20"/>
        <lane id=":R2_0_3" index="3" allow="private emergency authority army vip passenger hov taxi bus coach delivery truck trailer motorcycle evehicle custom1 custom2" speed="31.29" length="8.21" shape="1241.69,950.90 1240.02,952.64 1238.60,953.56 1237.18,954.49 1235.52,956.23"/>
    </edge>
    <edge id=":R3_0" function="internal">
        <lane id=":R3_0_0" index="0" allow="private emergency authority army vip passenger hov taxi bus coach delivery truck trailer motorcycle evehicle custom1 custom2" speed="31.29" length="0.30" shape="1207.06,1008.47 1206.85,1008.74"/>
        <lane id=":R3_0_1" index="1" allow="private emergency authority army vip passenger hov taxi bus coach delivery truck trailer motorcycle evehicle custom1 custom2" speed="31.29" length="0.30" shape="1204.53,1006.51 1204.34,1006.75"/>
        <lane id=":R3_0_2" index="2" allow="private emergency authority army vip passenger hov taxi bus coach delivery truck trailer motorcycle evehicle custom1 custom2" speed="31.29" length="0.30" shape="1202.01,1004.54 1201.83,1004.76"/>
        <lane id=":R3_0_3" index="3" allow="private emergency authority army vip passenger hov taxi bus coach delivery truck trailer motorcycle evehicle custom1 custom2" speed="31.29" length="0.30" shape="1199.48,1002.58 1199.33,1002.77"/>
    </edge>
    <edge id=":R4_0" function="internal">
        <lane id=":R4_0_0" index="0" allow="private emergency authority army vip passenger hov taxi bus coach delivery truck trailer motorcycle evehicle custom1 custom2" speed="26.75" length="10.01" shape="1193.26,1025.88 1191.57,1028.28 1190.73,1030.13 1190.13,1032.11 1189.16,1034.92"/>
    </edge>
    <edge id=":R4_1" function="internal">
        <lane id=":R4_1_0" index="0" allow="private emergency authority army vip passenger hov taxi bus coach delivery truck trailer motorcycle evehicle custom1 custom2" speed="31.29" length="10.53" shape="1190.75,1023.89 1189.09,1026.48 1188.36,1028.50 1187.65,1030.54 1186.03,1033.17"/>
        <lane id=":R4_1_1" index="1" allow="private emergency authority army vip passenger hov taxi bus coach delivery truck trailer motorcycle evehicle custom1 custom2" speed="31.29" length="10.53" shape="1188.24,1021.90 1186.57,1024.50 1185.84,1026.54 1185.11,1028.59 1183.49,1031.23"/>
        <lane id=":R4_1_2" index="2" allow="private emergency authority army vip passenger hov taxi bus coach delivery truck trailer motorcycle evehicle custom1 custom2" speed="31.29" length="10.53" shape="1185.74,1019.91 1184.06,1022.53 1183.31,1024.58 1182.58,1026.64 1180.94,1029.29"/>
    </edge>
    <edge id=":R5_0" function="internal">
        <lane id=":R5_0_0" index="0" allow="private emergency authority army vip passenger hov taxi bus coach delivery truck trailer motorcycle evehicle custom1 custom2" speed="26.75" length="11.29" shape="1034.06,1238.39 1031.61,1240.29 1029.71,1241.67 1027.90,1243.29 1025.71,1245.91"/>
    </edge>
    <edge id=":R5_1" function="internal">
        <lane id=":R5_1_0" index="0" allow="private emergency authority army vip passenger hov taxi bus coach delivery truck trailer motorcycle evehicle custom1 custom2" speed="31.29" length="11.68" shape="1031.51,1235.96 1029.21,1238.51 1027.31,1239.97 1025.43,1241.43 1023.15,1244.00"/>
        <lane id=":R5_1_1" index="1" allow="private emergency authority army vip passenger hov taxi bus coach delivery truck trailer motorcycle evehicle custom1 custom2" speed="31.29" length="11.68" shape="1028.97,1234.03 1026.66,1236.58 1024.76,1238.04 1022.87,1239.51 1020.59,1242.08"/>
        <lane id=":R5_1_2" index="2" allow="private emergency authority army vip passenger hov taxi bus coach delivery truck trailer motorcycle evehicle custom1 custom2" speed="31.29" length="11.68" shape="1026.42,1232.09 1024.11,1234.65 1022.21,1236.12 1020.31,1237.59 1018.02,1240.17"/>
    </edge>
    <edge id=":R6_0" function="internal">
        <lane id=":R6_0_0" index="0" allow="private emergency authority army vip passenger hov taxi bus coach delivery truck trailer motorcycle evehicle custom1 custom2" speed="31.29" length="0.29" shape="960.33,1333.49 960.12,1333.77"/>
        <lane id=":R6_0_1" index="1" allow="private emergency authority army vip passenger hov taxi bus coach delivery truck trailer motorcycle evehicle custom1 custom2" speed="31.29" length="0.29" shape="957.77,1331.57 957.58,1331.82"/>
        <lane id=":R6_0_2" index="2" allow="private emergency authority army vip passenger hov taxi bus coach delivery truck trailer motorcycle evehicle custom1 custom2" speed="31.29" length="0.29" shape="955.20,1329.66 955.04,1329.87"/>
        <lane id=":R6_0_3" index="3" allow="private emergency authority army vip passenger hov taxi bus coach delivery truck trailer motorcycle evehicle custom1 custom2" speed="31.29" length="0.29" shape="952.64,1327.74 952.51,1327.92"/>
    </edge>
    <edge id=":R7_0" function="internal">
        <lane id=":R7_0_0" index="0" allow="private emergency authority army vip passenger hov taxi bus coach delivery truck trailer motorcycle evehicle custom1 custom2" speed="31.29" length="8.21" shape="826.24,1502.75 824.97,1504.81 824.43,1506.41 823.89,1508.02 822.63,1510.07"/>
        <lane id=":R7_0_1" index="1" allow="private emergency authority army vip passenger hov taxi bus coach delivery truck trailer motorcycle evehicle custom1 custom2" speed="31.29" length="8.21" shape="823.70,1500.80 822.44,1502.86 821.90,1504.46 821.36,1506.07 820.09,1508.12"/>
        <lane id=":R7_0_2" index="2" allow="private emergency authority army vip passenger hov taxi bus coach delivery truck trailer motorcycle evehicle custom1 custom2" speed="31.29" length="8.21" shape="821.16,1498.85 819.90,1500.91 819.36,1502.51 818.82,1504.12 817.56,1506.17"/>
    </edge>
    <edge id=":RS4_0" function="internal">
        <lane id=":RS4_0_0" index="0" allow="private emergency authority army vip passenger hov taxi bus coach delivery truck trailer motorcycle evehicle custom1 custom2" speed="21.38" length="11.83" shape="1285.38,1084.32 1286.27,1081.24 1286.43,1078.61 1286.21,1075.92 1285.99,1072.64"/>
    </edge>
    <edge id=":RS4_1" function="internal">
        <lane id=":RS4_1_0" index="0" allow="private emergency authority army vip passenger hov taxi bus coach delivery truck trailer motorcycle evehicle custom1 custom2" speed="22.22" length="11.82" shape="1285.38,1084.32 1289.64,1073.30"/>
    </edge>
    <edge id=":RS5_0" function="internal">
        <lane id=":RS5_0_0" index="0" allow="private emergency authority army vip passenger hov taxi bus coach delivery truck trailer motorcycle evehicle custom1 custom2" speed="22.22" length="9.87" shape="1302.88,1086.71 1300.26,1088.03 1298.41,1088.88 1296.71,1089.93 1294.52,1091.83"/>
    </edge>
    <edge id=":RS5_1" function="internal">
        <lane id=":RS5_1_0" index="0" allow="private emergency authority army vip passenger hov taxi bus coach delivery truck trailer motorcycle evehicle custom1 custom2" speed="22.22" length="9.87" shape="1300.30,1083.89 1298.74,1086.37 1297.70,1088.11 1296.52,1089.72 1294.52,1091.83"/>
    </edge>
    <edge id=":RSM_0" function="internal">
        <lane id=":RSM_0_0" index="0" allow="private emergency authority army vip passenger hov taxi bus coach delivery truck trailer motorcycle evehicle custom1 custom2" speed="4.17" length="5.08" shape="1308.41,1048.77 1309.67,1047.72 1310.55,1047.57 1311.05,1048.31 1311.16,1049.95"/>
    </edge>

    <edge id="206605160" from="RSM" to="RS5" priority="9" type="highway.motorway_link" spreadType="center" shape="1311.32,1045.77 1311.03,1053.20 1310.84,1058.01 1310.12,1063.39 1307.91,1070.80 1305.74,1075.84 1295.75,1090.64">
        <lane id="206605160_0" index="0" allow="private emergency authority army vip passenger hov taxi bus coach delivery truck trailer motorcycle evehicle custom1 custom2" speed="22.22" length="36.43" shape="1311.16,1049.95 1311.03,1053.20 1310.84,1058.01 1310.12,1063.39 1307.91,1070.80 1305.74,1075.84 1300.30,1083.89"/>
    </edge>
    <edge id="206605161" from="2166336961" to="RSM" priority="9" type="highway.motorway_link" spreadType="center" shape="1301.17,1056.24 1306.66,1050.58 1311.32,1045.77">
        <lane id="206605161_0" index="0" allow="private emergency authority army vip passenger hov taxi bus coach delivery truck trailer motorcycle evehicle custom1 custom2" speed="22.22" length="10.40" shape="1301.17,1056.24 1306.66,1050.58 1308.41,1048.77"/>
    </edge>
    <edge id="206605176" from="RS4" to="RS41" priority="9" type="highway.motorway_link" spreadType="center" shape="1286.05,1082.64 1286.00,1073.09 1285.79,1065.07 1284.02,1055.15 1280.92,1046.61 1271.37,1031.94">
        <lane id="206605176_0" index="0" allow="private emergency authority army vip passenger hov taxi bus coach delivery truck trailer motorcycle evehicle custom1 custom2" speed="22.22" length="44.24" shape="1285.99,1072.64 1285.79,1065.07 1284.02,1055.15 1280.92,1046.61 1271.37,1031.94"/>
    </edge>
    <edge id="206605178" from="LS31" to="LS3" priority="9" type="highway.motorway_link" spreadType="center" shape="1152.21,934.72 1123.95,924.30 1109.21,923.63 1098.24,926.29 1089.16,931.79 1080.14,939.08">
        <lane id="206605178_0" index="0" allow="private emergency authority army vip passenger hov taxi bus coach delivery truck trailer motorcycle evehicle custom1 custom2" speed="22.22" length="63.68" shape="1152.21,934.72 1123.95,924.30 1109.21,923.63 1098.24,926.29 1091.81,930.19"/>
    </edge>
    <edge id="206605179" from="LS41" to="LS42" priority="9" type="highway.motorway_link" spreadType="center" shape="1069.88,931.92 1077.95,914.15 1079.43,908.54 1079.59,902.33 1077.75,889.98 1072.84,877.80 1065.50,863.48">
        <lane id="206605179_0" index="0" allow="private emergency authority army vip passenger hov taxi bus coach delivery truck trailer motorcycle evehicle custom1 custom2" speed="22.22" length="54.38" shape="1077.68,914.75 1077.95,914.15 1079.43,908.54 1079.59,902.33 1077.75,889.98 1072.84,877.80 1065.50,863.48"/>
    </edge>
    <edge id="206605180" from="RS51" to="RS5" priority="9" type="highway.motorway_link" spreadType="center" shape="1340.94,1088.50 1325.82,1084.64 1316.91,1083.15 1311.08,1083.86 1303.76,1086.22 1295.75,1090.64">
        <lane id="206605180_0" index="0" allow="private emergency authority army vip passenger hov taxi bus coach delivery truck trailer motorcycle evehicle custom1 custom2" speed="22.22" length="39.21" shape="1340.94,1088.50 1325.82,1084.64 1316.91,1083.15 1311.08,1083.86 1303.76,1086.22 1302.88,1086.71"/>
    </edge>
    <edge id="405040578" from="RS4" to="2166336961" priority="9" type="highway.motorway_link" spreadType="center" shape="1286.05,1082.64 1291.17,1069.31 1294.53,1064.20 1301.17,1056.24">
        <lane id="405040578_0" index="0" allow="private emergency authority army vip passenger hov taxi bus coach delivery truck trailer motorcycle evehicle custom1 custom2" speed="22.22" length="20.76" shape="1289.64,1073.30 1291.17,1069.31 1294.53,1064.20 1301.17,1056.24"/>
    </edge>
    <edge id="405040582" from="LS41" to="LSM" priority="9" type="highway.motorway_link" spreadType="center" shape="1069.88,931.92 1093.14,904.46 1097.94,899.68 1104.24,895.71 1116.25,889.39">
        <lane id="405040582_0" index="0" allow="private emergency authority army vip passenger hov taxi bus coach delivery truck trailer motorcycle evehicle custom1 custom2" speed="22.22" length="32.57" shape="1080.71,916.66 1091.96,903.37 1096.94,898.42 1103.44,894.32 1104.38,893.83"/>
        <lane id="405040582_1" index="1" allow="private emergency authority army vip passenger hov taxi bus coach delivery truck trailer motorcycle evehicle custom1 custom2" speed="22.22" length="32.57" shape="1083.15,918.73 1094.32,905.55 1098.94,900.94 1105.04,897.10 1105.87,896.66"/>
    </edge>
    <edge id="778959588" from="LSM" to="LS3" priority="9" type="highway.motorway_link" spreadType="center" shape="1116.25,889.39 1109.73,899.95 1104.41,908.08 1080.14,939.08">
        <lane id="778959588_0" index="0" allow="private emergency authority army vip passenger hov taxi bus coach delivery truck trailer motorcycle evehicle custom1 custom2" speed="22.22" length="33.84" shape="1109.40,900.45 1104.41,908.08 1089.17,927.54"/>
    </edge>
    <edge id="L23_L2" from="L23" to="L2" priority="14" type="highway.motorway" shape="1223.81,941.66 1313.03,821.11 1357.78,763.34">
        <lane id="L23_L2_0" index="0" allow="private emergency authority army vip passenger hov taxi bus coach delivery truck trailer motorcycle evehicle custom1 custom2" speed="31.29" length="218.88" shape="1214.99,934.75 1304.10,814.35 1346.48,759.64"/>
        <lane id="L23_L2_1" index="1" allow="private emergency authority army vip passenger hov taxi bus coach delivery truck trailer motorcycle evehicle custom1 custom2" speed="31.29" length="218.88" shape="1217.57,936.65 1306.65,816.28 1349.01,761.60"/>
        <lane id="L23_L2_2" index="2" allow="private emergency authority army vip passenger hov taxi bus coach delivery truck trailer motorcycle evehicle custom1 custom2" speed="31.29" length="218.88" shape="1220.14,938.55 1309.20,818.21 1351.54,763.56"/>
        <lane id="L23_L2_3" index="3" allow="private emergency authority army vip passenger hov taxi bus coach delivery truck trailer motorcycle evehicle custom1 custom2" speed="31.29" length="218.88" shape="1222.71,940.46 1311.75,820.14 1354.07,765.52"/>
        <param key="ref" value="I 75"/>
    </edge>
    <edge id="L2_L1" from="L2" to="L1" priority="14" type="highway.motorway" spreadType="center" shape="1357.78,763.34 1465.96,623.68 1728.66,280.10 1757.65,241.19 1882.82,78.78 1942.46,0.00">
        <lane id="L2_L1_0" index="0" allow="private emergency authority army vip passenger hov taxi bus coach delivery truck trailer motorcycle evehicle custom1 custom2" speed="31.29" length="957.54" shape="1357.70,758.22 1463.42,621.73 1726.11,278.17 1755.10,239.26 1880.28,76.84 1939.91,-1.93"/>
        <lane id="L2_L1_1" index="1" allow="private emergency authority army vip passenger hov taxi bus coach delivery truck trailer motorcycle evehicle custom1 custom2" speed="31.29" length="957.54" shape="1360.23,760.18 1465.96,623.68 1728.66,280.10 1757.65,241.19 1882.82,78.78 1942.46,0.00"/>
        <lane id="L2_L1_2" index="2" allow="private emergency authority army vip passenger hov taxi bus coach delivery truck trailer motorcycle evehicle custom1 custom2" speed="31.29" length="957.54" shape="1362.76,762.14 1468.50,625.63 1731.21,282.03 1760.20,243.12 1885.36,80.72 1945.01,1.93"/>
        <param key="ref" value="I 75"/>
    </edge>
    <edge id="L3_L23" from="L3" to="L23" priority="14" type="highway.motorway">