<?xml version="1.0" encoding="UTF-8"?>

<!-- generated on 2021-09-03 18:12:09 by Eclipse SUMO netconvert Version 1.9.1
<configuration xmlns:xsi="http://www.w3.org/2001/XMLSchema-instance" xsi:noNamespaceSchemaLocation="http://sumo.dlr.de/xsd/netconvertConfiguration.xsd">

    <input>
        <osm-files value="i75_121_intersection.osm.xml"/>
    </input>

    <output>
        <output-file value="i75_121_zz.net.xml"/>
    </output>

    <projection>
        <proj.utm value="true"/>
    </projection>

    <report>
        <aggregate-warnings value="5"/>
    </report>

</configuration>
-->

<net version="1.9" junctionCornerDetail="5" limitTurnSpeed="5.50" xmlns:xsi="http://www.w3.org/2001/XMLSchema-instance" xsi:noNamespaceSchemaLocation="http://sumo.dlr.de/xsd/net_file.xsd">

    <location netOffset="-365804.70,-3274504.91" convBoundary="0.00,0.00,1942.46,2656.34" origBoundary="-82.386018,29.593349,-82.365639,29.617110" projParameter="+proj=utm +zone=17 +ellps=WGS84 +datum=WGS84 +units=m +no_defs"/>

    <type id="highway.bridleway" priority="1" numLanes="1" speed="2.78" allow="pedestrian" oneway="1" width="2.00"/>
    <type id="highway.bus_guideway" priority="1" numLanes="1" speed="27.78" allow="bus" oneway="1"/>
    <type id="highway.cycleway" priority="1" numLanes="1" speed="8.33" allow="bicycle" oneway="0" width="1.00"/>
    <type id="highway.footway" priority="1" numLanes="1" speed="2.78" allow="pedestrian" oneway="1" width="2.00"/>
    <type id="highway.ford" priority="1" numLanes="1" speed="2.78" allow="army" oneway="0"/>
    <type id="highway.living_street" priority="2" numLanes="1" speed="2.78" disallow="tram rail_urban rail rail_electric rail_fast ship" oneway="0"/>
    <type id="highway.motorway" priority="14" numLanes="2" speed="39.44" allow="private emergency authority army vip passenger hov taxi bus coach delivery truck trailer motorcycle evehicle custom1 custom2" oneway="1"/>
    <type id="highway.motorway_link" priority="9" numLanes="1" speed="22.22" allow="private emergency authority army vip passenger hov taxi bus coach delivery truck trailer motorcycle evehicle custom1 custom2" oneway="1"/>
    <type id="highway.path" priority="1" numLanes="1" speed="2.78" allow="pedestrian bicycle" oneway="0" width="2.00"/>
    <type id="highway.pedestrian" priority="1" numLanes="1" speed="2.78" allow="pedestrian" oneway="1" width="2.00"/>
    <type id="highway.primary" priority="12" numLanes="2" speed="27.78" disallow="tram rail_urban rail rail_electric rail_fast ship" oneway="0"/>
    <type id="highway.primary_link" priority="7" numLanes="1" speed="22.22" disallow="tram rail_urban rail rail_electric rail_fast ship" oneway="0"/>
    <type id="highway.raceway" priority="15" numLanes="2" speed="83.33" allow="vip" oneway="0"/>
    <type id="highway.residential" priority="3" numLanes="1" speed="13.89" disallow="tram rail_urban rail rail_electric rail_fast ship" oneway="0"/>
    <type id="highway.secondary" priority="11" numLanes="1" speed="27.78" disallow="tram rail_urban rail rail_electric rail_fast ship" oneway="0"/>
    <type id="highway.secondary_link" priority="6" numLanes="1" speed="22.22" disallow="tram rail_urban rail rail_electric rail_fast ship" oneway="0"/>
    <type id="highway.service" priority="1" numLanes="1" speed="5.56" allow="pedestrian delivery bicycle" oneway="0"/>
    <type id="highway.stairs" priority="1" numLanes="1" speed="1.39" allow="pedestrian" oneway="1" width="2.00"/>
    <type id="highway.step" priority="1" numLanes="1" speed="1.39" allow="pedestrian" oneway="1" width="2.00"/>
    <type id="highway.steps" priority="1" numLanes="1" speed="1.39" allow="pedestrian" oneway="1" width="2.00"/>
    <type id="highway.tertiary" priority="10" numLanes="1" speed="22.22" disallow="tram rail_urban rail rail_electric rail_fast ship" oneway="0"/>
    <type id="highway.tertiary_link" priority="5" numLanes="1" speed="22.22" disallow="tram rail_urban rail rail_electric rail_fast ship" oneway="0"/>
    <type id="highway.track" priority="1" numLanes="1" speed="5.56" allow="pedestrian motorcycle moped bicycle" oneway="0"/>
    <type id="highway.trunk" priority="13" numLanes="2" speed="27.78" disallow="pedestrian bicycle tram rail_urban rail rail_electric rail_fast ship" oneway="0"/>
    <type id="highway.trunk_link" priority="8" numLanes="1" speed="22.22" disallow="pedestrian bicycle tram rail_urban rail rail_electric rail_fast ship" oneway="0"/>
    <type id="highway.unclassified" priority="4" numLanes="1" speed="13.89" disallow="tram rail_urban rail rail_electric rail_fast ship" oneway="0"/>
    <type id="highway.unsurfaced" priority="1" numLanes="1" speed="8.33" disallow="tram rail_urban rail rail_electric rail_fast ship" oneway="0"/>
    <type id="railway.highspeed" priority="21" numLanes="1" speed="69.44" allow="rail_fast" oneway="1"/>
    <type id="railway.light_rail" priority="19" numLanes="1" speed="27.78" allow="rail_urban" oneway="1"/>
    <type id="railway.preserved" priority="16" numLanes="1" speed="27.78" allow="rail" oneway="1"/>
    <type id="railway.rail" priority="20" numLanes="1" speed="44.44" allow="rail" oneway="1"/>
    <type id="railway.subway" priority="18" numLanes="1" speed="27.78" allow="rail_urban" oneway="1"/>
    <type id="railway.tram" priority="17" numLanes="1" speed="13.89" allow="tram" oneway="1"/>

    <edge id=":2166336906_0" function="internal">
        <lane id=":2166336906_0_0" index="0" allow="private emergency authority army vip passenger hov taxi bus coach delivery truck trailer motorcycle evehicle custom1 custom2" speed="22.22" length="6.69" shape="1074.56,920.66 1075.72,919.05 1076.36,917.86 1076.89,916.60 1077.66,914.77"/>
    </edge>
    <edge id=":2166336906_1" function="internal">
        <lane id=":2166336906_1_0" index="0" allow="private emergency authority army vip passenger hov taxi bus coach delivery truck trailer motorcycle evehicle custom1 custom2" speed="22.22" length="6.89" shape="1077.09,922.62 1078.24,920.90 1078.85,919.61 1079.48,918.34 1080.69,916.68"/>
        <lane id=":2166336906_1_1" index="1" allow="private emergency authority army vip passenger hov taxi bus coach delivery truck trailer motorcycle evehicle custom1 custom2" speed="22.22" length="6.89" shape="1079.62,924.58 1080.74,922.90 1081.34,921.63 1081.95,920.38 1083.13,918.75"/>
    </edge>
    <edge id=":2166336924_0" function="internal">
        <lane id=":2166336924_0_0" index="0" allow="private emergency authority army vip passenger hov taxi bus coach delivery truck trailer motorcycle evehicle custom1 custom2" speed="22.22" length="16.38" shape="1091.81,930.18 1088.45,932.32 1085.01,934.79 1081.79,937.51 1079.10,940.40"/>
    </edge>
    <edge id=":2166336924_1" function="internal">
        <lane id=":2166336924_1_0" index="0" allow="private emergency authority army vip passenger hov taxi bus coach delivery truck trailer motorcycle evehicle custom1 custom2" speed="22.22" length="16.34" shape="1089.18,927.54 1079.10,940.40"/>
    </edge>
    <edge id=":2166336961_0" function="internal">
        <lane id=":2166336961_0_0" index="0" allow="private emergency authority army vip passenger hov taxi bus coach delivery truck trailer motorcycle evehicle custom1 custom2" speed="22.22" length="0.10" shape="1301.17,1056.24 1301.17,1056.24"/>
    </edge>
    <edge id=":2166336987_0" function="internal">
        <lane id=":2166336987_0_0" index="0" allow="private emergency authority army vip passenger hov taxi bus coach delivery truck trailer motorcycle evehicle custom1 custom2" speed="21.45" length="11.84" shape="1285.38,1084.32 1286.27,1081.24 1286.42,1078.61 1286.21,1075.91 1285.99,1072.63"/>
    </edge>
    <edge id=":2166336987_1" function="internal">
        <lane id=":2166336987_1_0" index="0" allow="private emergency authority army vip passenger hov taxi bus coach delivery truck trailer motorcycle evehicle custom1 custom2" speed="22.22" length="11.82" shape="1285.38,1084.32 1289.64,1073.30"/>
    </edge>
    <edge id=":2166337008_0" function="internal">
        <lane id=":2166337008_0_0" index="0" allow="private emergency authority army vip passenger hov taxi bus coach delivery truck trailer motorcycle evehicle custom1 custom2" speed="22.22" length="9.87" shape="1302.87,1086.71 1300.25,1088.03 1298.40,1088.88 1296.70,1089.93 1294.52,1091.83"/>
    </edge>
    <edge id=":2166337008_1" function="internal">
        <lane id=":2166337008_1_0" index="0" allow="private emergency authority army vip passenger hov taxi bus coach delivery truck trailer motorcycle evehicle custom1 custom2" speed="22.22" length="9.86" shape="1300.30,1083.90 1298.73,1086.37 1297.70,1088.11 1296.52,1089.72 1294.52,1091.83"/>
    </edge>
    <edge id=":4072649914_0" function="internal">
        <lane id=":4072649914_0_0" index="0" allow="private emergency authority army vip passenger hov taxi bus coach delivery truck trailer motorcycle evehicle custom1 custom2" speed="31.29" length="8.21" shape="1354.06,765.52 1355.33,763.47 1355.88,761.87 1356.43,760.26 1357.70,758.21"/>
        <lane id=":4072649914_0_1" index="1" allow="private emergency authority army vip passenger hov taxi bus coach delivery truck trailer motorcycle evehicle custom1 custom2" speed="31.29" length="8.21" shape="1356.59,767.48 1357.86,765.43 1358.41,763.83 1358.96,762.22 1360.23,760.17"/>
        <lane id=":4072649914_0_2" index="2" allow="private emergency authority army vip passenger hov taxi bus coach delivery truck trailer motorcycle evehicle custom1 custom2" speed="31.29" length="8.21" shape="1359.12,769.44 1360.39,767.39 1360.94,765.78 1361.49,764.18 1362.76,762.13"/>
    </edge>
    <edge id=":4072677608_0" function="internal">
        <lane id=":4072677608_0_0" index="0" allow="private emergency authority army vip passenger hov taxi bus coach delivery truck trailer motorcycle evehicle custom1 custom2" speed="22.22" length="8.46" shape="1031.87,1138.72 1031.77,1136.26 1030.92,1134.61 1030.03,1132.96 1029.84,1130.48"/>
        <lane id=":4072677608_0_1" index="1" allow="private emergency authority army vip passenger hov taxi bus coach delivery truck trailer motorcycle evehicle custom1 custom2" speed="22.22" length="8.46" shape="1031.87,1138.72 1033.01,1130.88"/>
        <lane id=":4072677608_0_2" index="2" allow="private emergency authority army vip passenger hov taxi bus coach delivery truck trailer motorcycle evehicle custom1 custom2" speed="22.22" length="8.46" shape="1031.87,1138.72 1032.77,1136.37 1034.09,1135.01 1035.39,1133.64 1036.19,1131.28"/>
    </edge>
    <edge id=":4072677615_0" function="internal">
        <lane id=":4072677615_0_0" index="0" allow="private emergency authority army vip passenger hov taxi bus coach delivery truck trailer motorcycle evehicle custom1 custom2" speed="31.29" length="8.21" shape="968.97,1269.47 970.23,1267.41 970.77,1265.81 971.31,1264.20 972.57,1262.15"/>
        <lane id=":4072677615_0_1" index="1" allow="private emergency authority army vip passenger hov taxi bus coach delivery truck trailer motorcycle evehicle custom1 custom2" speed="31.29" length="8.21" shape="968.97,1269.47 970.63,1267.72 972.04,1266.78 973.45,1265.84 975.11,1264.09"/>
        <lane id=":4072677615_0_2" index="2" allow="private emergency authority army vip passenger hov taxi bus coach delivery truck trailer motorcycle evehicle custom1 custom2" speed="31.29" length="8.21" shape="971.51,1271.42 973.17,1269.66 974.58,1268.73 975.99,1267.79 977.65,1266.04"/>
        <lane id=":4072677615_0_3" index="3" allow="private emergency authority army vip passenger hov taxi bus coach delivery truck trailer motorcycle evehicle custom1 custom2" speed="31.29" length="8.21" shape="974.05,1273.36 975.71,1271.61 977.12,1270.67 978.53,1269.74 980.19,1267.98"/>
    </edge>
    <edge id=":4072677616_0" function="internal">
        <lane id=":4072677616_0_0" index="0" allow="private emergency authority army vip passenger hov taxi bus coach delivery truck trailer motorcycle evehicle custom1 custom2" speed="31.29" length="8.21" shape="826.24,1502.75 824.98,1504.81 824.44,1506.41 823.90,1508.02 822.63,1510.07"/>
        <lane id=":4072677616_0_1" index="1" allow="private emergency authority army vip passenger hov taxi bus coach delivery truck trailer motorcycle evehicle custom1 custom2" speed="31.29" length="8.21" shape="823.70,1500.80 822.44,1502.86 821.90,1504.46 821.36,1506.07 820.10,1508.12"/>
        <lane id=":4072677616_0_2" index="2" allow="private emergency authority army vip passenger hov taxi bus coach delivery truck trailer motorcycle evehicle custom1 custom2" speed="31.29" length="8.21" shape="821.17,1498.85 819.90,1500.91 819.36,1502.51 818.82,1504.12 817.56,1506.17"/>
    </edge>
    <edge id=":618106183_0" function="internal">
        <lane id=":618106183_0_0" index="0" allow="private emergency authority army vip passenger hov taxi bus coach delivery truck trailer motorcycle evehicle custom1 custom2" speed="31.29" length="8.21" shape="1246.75,954.82 1245.47,956.87 1244.92,958.47 1244.37,960.08 1243.10,962.12"/>
        <lane id=":618106183_0_1" index="1" allow="private emergency authority army vip passenger hov taxi bus coach delivery truck trailer motorcycle evehicle custom1 custom2" speed="31.29" length="8.21" shape="1246.75,954.82 1245.08,956.56 1243.66,957.49 1242.24,958.42 1240.57,960.16"/>
        <lane id=":618106183_0_2" index="2" allow="private emergency authority army vip passenger hov taxi bus coach delivery truck trailer motorcycle evehicle custom1 custom2" speed="31.29" length="8.21" shape="1244.22,952.86 1242.55,954.60 1241.13,955.53 1239.72,956.45 1238.05,958.19"/>
        <lane id=":618106183_0_3" index="3" allow="private emergency authority army vip passenger hov taxi bus coach delivery truck trailer motorcycle evehicle custom1 custom2" speed="31.29" length="8.21" shape="1241.69,950.90 1240.02,952.63 1238.61,953.56 1237.19,954.49 1235.52,956.23"/>
    </edge>
    <edge id=":84733667_0" function="internal">
        <lane id=":84733667_0_0" index="0" allow="private emergency authority army vip passenger hov taxi bus coach delivery truck trailer motorcycle evehicle custom1 custom2" speed="26.76" length="10.04" shape="1193.27,1025.86 1191.57,1028.27 1190.73,1030.12 1190.13,1032.10 1189.15,1034.93"/>
    </edge>
    <edge id=":84733667_1" function="internal">
        <lane id=":84733667_1_0" index="0" allow="private emergency authority army vip passenger hov taxi bus coach delivery truck trailer motorcycle evehicle custom1 custom2" speed="31.29" length="10.56" shape="1190.76,1023.87 1189.10,1026.46 1188.37,1028.49 1187.65,1030.54 1186.03,1033.17"/>
        <lane id=":84733667_1_1" index="1" allow="private emergency authority army vip passenger hov taxi bus coach delivery truck trailer motorcycle evehicle custom1 custom2" speed="31.29" length="10.56" shape="1188.25,1021.88 1186.58,1024.49 1185.84,1026.53 1185.12,1028.58 1183.49,1031.23"/>
        <lane id=":84733667_1_2" index="2" allow="private emergency authority army vip passenger hov taxi bus coach delivery truck trailer motorcycle evehicle custom1 custom2" speed="31.29" length="10.56" shape="1185.75,1019.89 1184.06,1022.51 1183.31,1024.56 1182.58,1026.63 1180.94,1029.29"/>
    </edge>
    <edge id=":84733704_0" function="internal">
        <lane id=":84733704_0_0" index="0" allow="private emergency authority army vip passenger hov taxi bus coach delivery truck trailer motorcycle evehicle custom1 custom2" speed="4.17" length="5.08" shape="1308.41,1048.77 1309.68,1047.72 1310.56,1047.56 1311.05,1048.31 1311.16,1049.95"/>
    </edge>
    <edge id=":84743370_0" function="internal">
        <lane id=":84743370_0_0" index="0" allow="private emergency authority army vip passenger hov taxi bus coach delivery truck trailer motorcycle evehicle custom1 custom2" speed="26.76" length="7.68" shape="1163.89,1007.79 1165.71,1006.42 1166.99,1005.49 1168.14,1004.45 1169.61,1002.73"/>
    </edge>
    <edge id=":84743370_1" function="internal">
        <lane id=":84743370_1_0" index="0" allow="private emergency authority army vip passenger hov taxi bus coach delivery truck trailer motorcycle evehicle custom1 custom2" speed="31.29" length="7.91" shape="1166.43,1010.27 1167.99,1008.50 1169.26,1007.47 1170.54,1006.45 1172.13,1004.71"/>
        <lane id=":84743370_1_1" index="1" allow="private emergency authority army vip passenger hov taxi bus coach delivery truck trailer motorcycle evehicle custom1 custom2" speed="31.29" length="7.91" shape="1168.99,1012.19 1170.53,1010.44 1171.79,1009.42 1173.06,1008.42 1174.64,1006.69"/>
        <lane id=":84743370_1_2" index="2" allow="private emergency authority army vip passenger hov taxi bus coach delivery truck trailer motorcycle evehicle custom1 custom2" speed="31.29" length="7.91" shape="1171.55,1014.12 1173.07,1012.38 1174.33,1011.38 1175.59,1010.38 1177.16,1008.67"/>
    </edge>
    <edge id=":84743409_0" function="internal">
        <lane id=":84743409_0_0" index="0" allow="private emergency authority army vip passenger hov taxi bus coach delivery truck trailer motorcycle evehicle custom1 custom2" speed="5.58" length="11.53" shape="1105.87,896.66 1109.53,895.09 1111.34,895.19 1111.30,896.98 1109.40,900.45"/>
    </edge>
    <edge id=":84790744_0" function="internal">
        <lane id=":84790744_0_0" index="0" allow="private emergency authority army vip passenger hov taxi bus coach delivery truck trailer motorcycle evehicle custom1 custom2" speed="26.76" length="11.29" shape="1034.06,1238.38 1031.62,1240.29 1029.72,1241.67 1027.91,1243.29 1025.72,1245.91"/>
    </edge>
    <edge id=":84790744_1" function="internal">
        <lane id=":84790744_1_0" index="0" allow="private emergency authority army vip passenger hov taxi bus coach delivery truck trailer motorcycle evehicle custom1 custom2" speed="31.29" length="11.67" shape="1031.52,1235.96 1029.22,1238.51 1027.32,1239.97 1025.44,1241.43 1023.16,1243.99"/>
        <lane id=":84790744_1_1" index="1" allow="private emergency authority army vip passenger hov taxi bus coach delivery truck trailer motorcycle evehicle custom1 custom2" speed="31.29" length="11.67" shape="1028.97,1234.02 1026.67,1236.58 1024.77,1238.04 1022.88,1239.51 1020.60,1242.08"/>
        <lane id=":84790744_1_2" index="2" allow="private emergency authority army vip passenger hov taxi bus coach delivery truck trailer motorcycle evehicle custom1 custom2" speed="31.29" length="11.67" shape="1026.43,1232.09 1024.12,1234.65 1022.21,1236.11 1020.32,1237.58 1018.03,1240.16"/>
    </edge>
    <edge id=":84793267_0" function="internal">
        <lane id=":84793267_0_0" index="0" allow="private emergency authority army vip passenger hov taxi bus coach delivery truck trailer motorcycle evehicle custom1 custom2" speed="26.76" length="10.23" shape="1000.82,1225.27 1002.55,1222.79 1003.49,1220.92 1004.23,1218.95 1005.38,1216.18"/>
    </edge>
    <edge id=":84793267_1" function="internal">
        <lane id=":84793267_1_0" index="0" allow="private emergency authority army vip passenger hov taxi bus coach delivery truck trailer motorcycle evehicle custom1 custom2" speed="31.29" length="10.56" shape="1003.36,1227.22 1005.05,1224.60 1005.88,1222.60 1006.71,1220.60 1008.40,1217.99"/>
        <lane id=":84793267_1_1" index="1" allow="private emergency authority army vip passenger hov taxi bus coach delivery truck trailer motorcycle evehicle custom1 custom2" speed="31.29" length="10.56" shape="1005.90,1229.17 1007.59,1226.55 1008.42,1224.55 1009.26,1222.55 1010.94,1219.93"/>
        <lane id=":84793267_1_2" index="2" allow="private emergency authority army vip passenger hov taxi bus coach delivery truck trailer motorcycle evehicle custom1 custom2" speed="31.29" length="10.56" shape="1008.44,1231.11 1010.13,1228.50 1010.96,1226.50 1011.80,1224.49 1013.48,1221.88"/>
    </edge>
    <edge id=":84846825_0" function="internal">
        <lane id=":84846825_0_0" index="0" allow="private emergency authority army vip passenger hov taxi bus coach delivery truck trailer motorcycle evehicle custom1 custom2" speed="31.29" length="0.43" shape="1219.91,938.86 1220.08,938.63"/>
        <lane id=":84846825_0_1" index="1" allow="private emergency authority army vip passenger hov taxi bus coach delivery truck trailer motorcycle evehicle custom1 custom2" speed="31.29" length="0.43" shape="1222.42,940.84 1222.65,940.53"/>
        <lane id=":84846825_0_2" index="2" allow="private emergency authority army vip passenger hov taxi bus coach delivery truck trailer motorcycle evehicle custom1 custom2" speed="31.29" length="0.43" shape="1224.93,942.82 1225.23,942.43"/>
        <lane id=":84846825_0_3" index="3" allow="private emergency authority army vip passenger hov taxi bus coach delivery truck trailer motorcycle evehicle custom1 custom2" speed="31.29" length="0.43" shape="1227.45,944.80 1227.80,944.34"/>
    </edge>
    <edge id=":84847294_0" function="internal">
        <lane id=":84847294_0_0" index="0" allow="private emergency authority army vip passenger hov taxi bus coach delivery truck trailer motorcycle evehicle custom1 custom2" speed="31.29" length="0.29" shape="960.33,1333.48 960.12,1333.77"/>
        <lane id=":84847294_0_1" index="1" allow="private emergency authority army vip passenger hov taxi bus coach delivery truck trailer motorcycle evehicle custom1 custom2" speed="31.29" length="0.29" shape="957.77,1331.57 957.58,1331.82"/>
        <lane id=":84847294_0_2" index="2" allow="private emergency authority army vip passenger hov taxi bus coach delivery truck trailer motorcycle evehicle custom1 custom2" speed="31.29" length="0.29" shape="955.21,1329.65 955.04,1329.87"/>
        <lane id=":84847294_0_3" index="3" allow="private emergency authority army vip passenger hov taxi bus coach delivery truck trailer motorcycle evehicle custom1 custom2" speed="31.29" length="0.29" shape="952.64,1327.74 952.51,1327.92"/>
    </edge>
    <edge id=":84847299_0" function="internal">
        <lane id=":84847299_0_0" index="0" allow="private emergency authority army vip passenger hov taxi bus coach delivery truck trailer motorcycle evehicle custom1 custom2" speed="31.29" length="0.30" shape="1207.06,1008.47 1206.85,1008.74"/>
        <lane id=":84847299_0_1" index="1" allow="private emergency authority army vip passenger hov taxi bus coach delivery truck trailer motorcycle evehicle custom1 custom2" speed="31.29" length="0.30" shape="1204.54,1006.51 1204.34,1006.75"/>
        <lane id=":84847299_0_2" index="2" allow="private emergency authority army vip passenger hov taxi bus coach delivery truck trailer motorcycle evehicle custom1 custom2" speed="31.29" length="0.30" shape="1202.01,1004.54 1201.84,1004.76"/>
        <lane id=":84847299_0_3" index="3" allow="private emergency authority army vip passenger hov taxi bus coach delivery truck trailer motorcycle evehicle custom1 custom2" speed="31.29" length="0.30" shape="1199.48,1002.58 1199.33,1002.77"/>
    </edge>

    <edge id="10225766" from="84733667" to="2166336987" priority="9" type="highway.motorway_link" spreadType="center" shape="1198.20,1011.92 1178.91,1060.99 1175.36,1072.00 1174.04,1083.55 1174.76,1095.18 1177.70,1106.33 1182.67,1116.81 1189.66,1126.14 1196.41,1132.05 1207.03,1137.35 1212.76,1138.95 1218.78,1139.65 1227.88,1139.54 1239.57,1136.86 1247.75,1132.88 1255.05,1127.47 1274.28,1104.76 1277.60,1100.26 1280.71,1094.43 1283.55,1088.91 1286.05,1082.64">
        <lane id="10225766_0" index="0" allow="private emergency authority army vip passenger hov taxi bus coach delivery truck trailer motorcycle evehicle custom1 custom2" speed="22.22" length="222.87" shape="1189.15,1034.93 1178.91,1060.99 1175.36,1072.00 1174.04,1083.55 1174.76,1095.18 1177.70,1106.33 1182.67,1116.81 1189.66,1126.14 1196.41,1132.05 1207.03,1137.35 1212.76,1138.95 1218.78,1139.65 1227.88,1139.54 1239.57,1136.86 1247.75,1132.88 1255.05,1127.47 1274.28,1104.76 1277.60,1100.26 1280.71,1094.43 1283.55,1088.91 1285.38,1084.32"/>
    </edge>
    <edge id="206605160" from="84733704" to="2166337008" priority="9" type="highway.motorway_link" spreadType="center" shape="1311.32,1045.77 1311.03,1053.20 1310.84,1058.01 1310.12,1063.39 1307.91,1070.80 1305.74,1075.84 1295.75,1090.64">
        <lane id="206605160_0" index="0" allow="private emergency authority army vip passenger hov taxi bus coach delivery truck trailer motorcycle evehicle custom1 custom2" speed="22.22" length="36.44" shape="1311.16,1049.95 1311.03,1053.20 1310.84,1058.01 1310.12,1063.39 1307.91,1070.80 1305.74,1075.84 1300.30,1083.90"/>
    </edge>
    <edge id="206605161" from="2166336961" to="84733704" priority="9" type="highway.motorway_link" spreadType="center" shape="1301.17,1056.24 1306.66,1050.58 1311.32,1045.77">
        <lane id="206605161_0" index="0" allow="private emergency authority army vip passenger hov taxi bus coach delivery truck trailer motorcycle evehicle custom1 custom2" speed="22.22" length="10.40" shape="1301.17,1056.24 1306.66,1050.58 1308.41,1048.77"/>
    </edge>
    <edge id="206605170" from="4072677608" to="2166336906" priority="9" type="highway.motorway_link" spreadType="center" shape="1032.52,1134.81 1033.97,1123.22 1035.04,1107.47 1034.24,1013.77 1035.05,999.42 1037.36,985.84 1042.22,972.08 1046.80,963.40 1052.34,954.56 1069.88,931.92">
        <lane id="206605170_0" index="0" allow="private emergency authority army vip passenger hov taxi bus coach delivery truck trailer motorcycle evehicle custom1 custom2" speed="22.22" length="220.61" shape="1029.84,1130.48 1030.79,1122.91 1031.84,1107.38 1031.04,1013.69 1031.87,999.06 1034.25,985.03 1039.28,970.79 1044.02,961.81 1049.71,952.73 1074.56,920.66"/>
        <lane id="206605170_1" index="1" allow="private emergency authority army vip passenger hov taxi bus coach delivery truck trailer motorcycle evehicle custom1 custom2" speed="22.22" length="220.61" shape="1033.01,1130.88 1033.97,1123.22 1035.04,1107.47 1034.24,1013.77 1035.05,999.42 1037.36,985.84 1042.22,972.08 1046.80,963.40 1052.34,954.56 1077.09,922.62"/>
        <lane id="206605170_2" index="2" allow="private emergency authority army vip passenger hov taxi bus coach delivery truck trailer motorcycle evehicle custom1 custom2" speed="22.22" length="220.61" shape="1036.19,1131.28 1037.16,1123.53 1038.25,1107.57 1037.44,1013.85 1038.24,999.78 1040.47,986.64 1045.16,973.37 1049.57,965.00 1054.97,956.39 1079.62,924.58"/>
    </edge>
    <edge id="206605173" from="2166336924" to="84743370" priority="9" type="highway.motorway_link" spreadType="center" shape="1080.14,939.08 1058.37,966.88 1054.38,974.02 1051.01,983.81 1049.78,994.03 1050.57,1003.77 1053.49,1013.04 1058.14,1021.63 1064.43,1028.99 1072.15,1034.88 1077.90,1037.91 1084.61,1040.16 1092.18,1041.40 1100.03,1041.86 1107.68,1041.33 1115.31,1039.80 1126.21,1036.01 1133.05,1032.38 1184.98,990.97">
        <lane id="206605173_0" index="0" allow="private emergency authority army vip passenger hov taxi bus coach delivery truck trailer motorcycle evehicle custom1 custom2" speed="22.22" length="214.39" shape="1079.10,940.40 1058.37,966.88 1054.38,974.02 1051.01,983.81 1049.78,994.03 1050.57,1003.77 1053.49,1013.04 1058.14,1021.63 1064.43,1028.99 1072.15,1034.88 1077.90,1037.91 1084.61,1040.16 1092.18,1041.40 1100.03,1041.86 1107.68,1041.33 1115.31,1039.80 1126.21,1036.01 1133.05,1032.38 1163.89,1007.79"/>
    </edge>
    <edge id="206605176" from="2166336987" to="2166336952" priority="9" type="highway.motorway_link" spreadType="center" shape="1286.05,1082.64 1286.00,1073.09 1285.79,1065.07 1284.02,1055.15 1280.92,1046.61 1271.37,1031.94">
        <lane id="206605176_0" index="0" allow="private emergency authority army vip passenger hov taxi bus coach delivery truck trailer motorcycle evehicle custom1 custom2" speed="22.22" length="44.22" shape="1285.99,1072.63 1285.79,1065.07 1284.02,1055.15 1280.92,1046.61 1271.37,1031.94"/>
    </edge>
    <edge id="206605178" from="2166336909" to="2166336924" priority="9" type="highway.motorway_link" spreadType="center" shape="1152.21,934.72 1123.95,924.30 1109.21,923.63 1098.24,926.29 1089.16,931.79 1080.14,939.08">
        <lane id="206605178_0" index="0" allow="private emergency authority army vip passenger hov taxi bus coach delivery truck trailer motorcycle evehicle custom1 custom2" speed="22.22" length="63.68" shape="1152.21,934.72 1123.95,924.30 1109.21,923.63 1098.24,926.29 1091.81,930.18"/>
    </edge>
    <edge id="206605179" from="2166336906" to="2166336868" priority="9" type="highway.motorway_link" spreadType="center" shape="1069.88,931.92 1077.95,914.15 1079.43,908.54 1079.59,902.33 1077.75,889.98 1072.84,877.80 1065.50,863.48">
        <lane id="206605179_0" index="0" allow="private emergency authority army vip passenger hov taxi bus coach delivery truck trailer motorcycle evehicle custom1 custom2" speed="22.22" length="54.41" shape="1077.66,914.77 1077.95,914.15 1079.43,908.54 1079.59,902.33 1077.75,889.98 1072.84,877.80 1065.50,863.48"/>
    </edge>
    <edge id="206605180" from="2166337009" to="2166337008" priority="9" type="highway.motorway_link" spreadType="center" shape="1340.94,1088.50 1325.82,1084.64 1316.91,1083.15 1311.08,1083.86 1303.76,1086.22 1295.75,1090.64">
        <lane id="206605180_0" index="0" allow="private emergency authority army vip passenger hov taxi bus coach delivery truck trailer motorcycle evehicle custom1 custom2" speed="22.22" length="39.21" shape="1340.94,1088.50 1325.82,1084.64 1316.91,1083.15 1311.08,1083.86 1303.76,1086.22 1302.87,1086.71"/>
    </edge>
    <edge id="405037840" from="84846825" to="4072649914" priority="14" type="highway.motorway" spreadType="center" shape="1223.81,941.66 1313.03,821.11 1357.78,763.34">
        <lane id="405037840_0" index="0" allow="private emergency authority army vip passenger hov taxi bus coach delivery truck trailer motorcycle evehicle custom1 custom2" speed="31.29" length="218.83" shape="1220.08,938.63 1309.20,818.21 1351.53,763.56"/>