<additional>
   <inductionLoop id="loop1_1" lane="R1_R2_0" pos="100" freq="300" file="loop.xml" friendlyPos="true"/>
   <inductionLoop id="loop1_2" lane="R1_R2_1" pos="100" freq="300" file="loop.xml" friendlyPos="true"/>
   <inductionLoop id="loop1_3" lane="R1_R2_2" pos="100" freq="300" file="loop.xml" friendlyPos="true"/>
   
   <inductionLoop id="loop2_1" lane="R2_R3_0" pos="62" freq="300" file="loop.xml" friendlyPos="true"/>
   <inductionLoop id="loop2_2" lane="R2_R3_1" pos="62" freq="300" file="loop.xml" friendlyPos="true"/>
   <inductionLoop id="loop2_3" lane="R2_R3_2" pos="62" freq="300" file="loop.xml" friendlyPos="true"/>
   <inductionLoop id="loop2_4" lane="R2_R3_3" pos="62" freq="300" file="loop.xml" friendlyPos="true"/>
   
   <inductionLoop id="loop3_1" lane="R4_RS4_0" pos="0" freq="300" file="loop.xml" friendlyPos="true"/>
   
   <inductionLoop id="loop4_1" lane="R4_R5_0" pos="300" freq="300" file="loop.xml" friendlyPos="true"/>
   <inductionLoop id="loop4_2" lane="R4_R5_1" pos="300" freq="300" file="loop.xml" friendlyPos="true"/>
   <inductionLoop id="loop4_3" lane="R4_R5_2" pos="300" freq="300" file="loop.xml" friendlyPos="true"/>
   
   
   <inductionLoop id="loop5_1" lane="R5_R6_0" pos="90" freq="300" file="loop.xml" friendlyPos="true"/>
   <inductionLoop id="loop5_2" lane="R5_R6_1" pos="90" freq="300" file="loop.xml" friendlyPos="true"/>
   <inductionLoop id="loop5_3" lane="R5_R6_2" pos="90" freq="300" file="loop.xml" friendlyPos="true"/>
   <inductionLoop id="loop5_4" lane="R5_R6_3" pos="90" freq="300" file="loop.xml" friendlyPos="true"/>
	 
   <inductionLoop id="loop6_1" lane="RS5_R5_0" pos="320" freq="300" file="loop.xml" friendlyPos="true"/>
   
   <inductionLoop id="loop7_1" lane="R7_R8_0" pos="300" freq="300" file="loop.xml" friendlyPos="true"/>
   <inductionLoop id="loop7_2" lane="R7_R8_1" pos="300" freq="300" file="loop.xml" friendlyPos="true"/>
   <inductionLoop id="loop7_3" lane="R7_R8_2" pos="300" freq="300" file="loop.xml" friendlyPos="true"/>
   
   <inductionLoop id="loop8_1" lane="R6_R7_0" pos="200" freq="300" file="loop.xml" friendlyPos="true"/>
   <inductionLoop id="loop8_2" lane="R6_R7_1" pos="200" freq="300" file="loop.xml" friendlyPos="true"/>
   <inductionLoop id="loop8_3" lane="R6_R7_2" pos="200" freq="300" file="loop.xml" friendlyPos="true"/>
   <inductionLoop id="loop8_4" lane="R6_R7_3" pos="200" freq="300" file="loop.xml" friendlyPos="true"/>
	
	   
</additional>