<?xml version="1.0" encoding="UTF-8"?>

<!-- generated on 2021-08-31 02:54:25 by Eclipse SUMO netconvert Version 1.9.1
<configuration xmlns:xsi="http://www.w3.org/2001/XMLSchema-instance" xsi:noNamespaceSchemaLocation="http://sumo.dlr.de/xsd/netconvertConfiguration.xsd">

    <input>
        <osm-files value="turbo_overpass_mapdata.osm.xml"/>
    </input>

    <output>
        <output-file value="turbo_mapdata_v1.net.xml"/>
    </output>

    <projection>
        <proj.utm value="true"/>
    </projection>

    <report>
        <aggregate-warnings value="5"/>
    </report>

</configuration>
-->

<net version="1.9" junctionCornerDetail="5" limitTurnSpeed="5.50" xmlns:xsi="http://www.w3.org/2001/XMLSchema-instance" xsi:noNamespaceSchemaLocation="http://sumo.dlr.de/xsd/net_file.xsd">

    <location netOffset="-360717.80,-3247154.59" convBoundary="0.00,0.00,20926.73,37196.72" origBoundary="-82.439468,29.347958,-82.219207,29.681419" projParameter="+proj=utm +zone=17 +ellps=WGS84 +datum=WGS84 +units=m +no_defs"/>

    <type id="highway.bridleway" priority="1" numLanes="1" speed="2.78" allow="pedestrian" oneway="1" width="2.00"/>
    <type id="highway.bus_guideway" priority="1" numLanes="1" speed="27.78" allow="bus" oneway="1"/>
    <type id="highway.cycleway" priority="1" numLanes="1" speed="8.33" allow="bicycle" oneway="0" width="1.00"/>
    <type id="highway.footway" priority="1" numLanes="1" speed="2.78" allow="pedestrian" oneway="1" width="2.00"/>
    <type id="highway.ford" priority="1" numLanes="1" speed="2.78" allow="army" oneway="0"/>
    <type id="highway.living_street" priority="2" numLanes="1" speed="2.78" disallow="tram rail_urban rail rail_electric rail_fast ship" oneway="0"/>
    <type id="highway.motorway" priority="14" numLanes="2" speed="39.44" allow="private emergency authority army vip passenger hov taxi bus coach delivery truck trailer motorcycle evehicle custom1 custom2" oneway="1"/>
    <type id="highway.motorway_link" priority="9" numLanes="1" speed="22.22" allow="private emergency authority army vip passenger hov taxi bus coach delivery truck trailer motorcycle evehicle custom1 custom2" oneway="1"/>
    <type id="highway.path" priority="1" numLanes="1" speed="2.78" allow="pedestrian bicycle" oneway="0" width="2.00"/>
    <type id="highway.pedestrian" priority="1" numLanes="1" speed="2.78" allow="pedestrian" oneway="1" width="2.00"/>
    <type id="highway.primary" priority="12" numLanes="2" speed="27.78" disallow="tram rail_urban rail rail_electric rail_fast ship" oneway="0"/>
    <type id="highway.primary_link" priority="7" numLanes="1" speed="22.22" disallow="tram rail_urban rail rail_electric rail_fast ship" oneway="0"/>
    <type id="highway.raceway" priority="15" numLanes="2" speed="83.33" allow="vip" oneway="0"/>
    <type id="highway.residential" priority="3" numLanes="1" speed="13.89" disallow="tram rail_urban rail rail_electric rail_fast ship" oneway="0"/>
    <type id="highway.secondary" priority="11" numLanes="1" speed="27.78" disallow="tram rail_urban rail rail_electric rail_fast ship" oneway="0"/>
    <type id="highway.secondary_link" priority="6" numLanes="1" speed="22.22" disallow="tram rail_urban rail rail_electric rail_fast ship" oneway="0"/>
    <type id="highway.service" priority="1" numLanes="1" speed="5.56" allow="pedestrian delivery bicycle" oneway="0"/>
    <type id="highway.stairs" priority="1" numLanes="1" speed="1.39" allow="pedestrian" oneway="1" width="2.00"/>
    <type id="highway.step" priority="1" numLanes="1" speed="1.39" allow="pedestrian" oneway="1" width="2.00"/>
    <type id="highway.steps" priority="1" numLanes="1" speed="1.39" allow="pedestrian" oneway="1" width="2.00"/>
    <type id="highway.tertiary" priority="10" numLanes="1" speed="22.22" disallow="tram rail_urban rail rail_electric rail_fast ship" oneway="0"/>
    <type id="highway.tertiary_link" priority="5" numLanes="1" speed="22.22" disallow="tram rail_urban rail rail_electric rail_fast ship" oneway="0"/>
    <type id="highway.track" priority="1" numLanes="1" speed="5.56" allow="pedestrian motorcycle moped bicycle" oneway="0"/>
    <type id="highway.trunk" priority="13" numLanes="2" speed="27.78" disallow="pedestrian bicycle tram rail_urban rail rail_electric rail_fast ship" oneway="0"/>
    <type id="highway.trunk_link" priority="8" numLanes="1" speed="22.22" disallow="pedestrian bicycle tram rail_urban rail rail_electric rail_fast ship" oneway="0"/>
    <type id="highway.unclassified" priority="4" numLanes="1" speed="13.89" disallow="tram rail_urban rail rail_electric rail_fast ship" oneway="0"/>
    <type id="highway.unsurfaced" priority="1" numLanes="1" speed="8.33" disallow="tram rail_urban rail rail_electric rail_fast ship" oneway="0"/>
    <type id="railway.highspeed" priority="21" numLanes="1" speed="69.44" allow="rail_fast" oneway="1"/>
    <type id="railway.light_rail" priority="19" numLanes="1" speed="27.78" allow="rail_urban" oneway="1"/>
    <type id="railway.preserved" priority="16" numLanes="1" speed="27.78" allow="rail" oneway="1"/>
    <type id="railway.rail" priority="20" numLanes="1" speed="44.44" allow="rail" oneway="1"/>
    <type id="railway.subway" priority="18" numLanes="1" speed="27.78" allow="rail_urban" oneway="1"/>
    <type id="railway.tram" priority="17" numLanes="1" speed="13.89" allow="tram" oneway="1"/>

    <edge id=":1746843072_0" function="internal">
        <lane id=":1746843072_0_0" index="0" allow="private emergency authority army vip passenger hov taxi bus coach delivery truck trailer motorcycle evehicle custom1 custom2" speed="31.29" length="0.30" shape="4113.33,31670.41 4113.18,31670.66"/>
        <lane id=":1746843072_0_1" index="1" allow="private emergency authority army vip passenger hov taxi bus coach delivery truck trailer motorcycle evehicle custom1 custom2" speed="31.29" length="0.30" shape="4110.58,31668.76 4110.43,31669.02"/>
        <lane id=":1746843072_0_2" index="2" allow="private emergency authority army vip passenger hov taxi bus coach delivery truck trailer motorcycle evehicle custom1 custom2" speed="31.29" length="0.30" shape="4107.84,31667.11 4107.68,31667.38"/>
    </edge>
    <edge id=":1746843079_0" function="internal">
        <lane id=":1746843079_0_0" index="0" allow="private emergency authority army vip passenger hov taxi bus coach delivery truck trailer motorcycle evehicle custom1 custom2" speed="31.29" length="0.30" shape="4064.49,31694.41 4064.63,31694.18"/>
        <lane id=":1746843079_0_1" index="1" allow="private emergency authority army vip passenger hov taxi bus coach delivery truck trailer motorcycle evehicle custom1 custom2" speed="31.29" length="0.30" shape="4067.22,31696.07 4067.37,31695.82"/>
        <lane id=":1746843079_0_2" index="2" allow="private emergency authority army vip passenger hov taxi bus coach delivery truck trailer motorcycle evehicle custom1 custom2" speed="31.29" length="0.30" shape="4069.96,31697.73 4070.12,31697.46"/>
    </edge>
    <edge id=":1746843160_0" function="internal">
        <lane id=":1746843160_0_0" index="0" allow="private emergency authority army vip passenger hov taxi bus coach delivery truck trailer motorcycle evehicle custom1 custom2" speed="31.29" length="0.30" shape="4090.27,31708.99 4090.11,31709.24"/>
        <lane id=":1746843160_0_1" index="1" allow="private emergency authority army vip passenger hov taxi bus coach delivery truck trailer motorcycle evehicle custom1 custom2" speed="31.29" length="0.30" shape="4087.52,31707.34 4087.37,31707.60"/>
        <lane id=":1746843160_0_2" index="2" allow="private emergency authority army vip passenger hov taxi bus coach delivery truck trailer motorcycle evehicle custom1 custom2" speed="31.29" length="0.30" shape="4084.77,31705.70 4084.62,31705.96"/>
    </edge>
    <edge id=":2166336876_0" function="internal">
        <lane id=":2166336876_0_0" index="0" allow="private emergency authority army vip passenger hov taxi bus coach delivery truck trailer motorcycle evehicle custom1 custom2" speed="22.22" length="0.25" shape="6190.18,28244.74 6190.50,28244.55"/>
        <lane id=":2166336876_0_1" index="1" allow="private emergency authority army vip passenger hov taxi bus coach delivery truck trailer motorcycle evehicle custom1 custom2" speed="22.22" length="0.25" shape="6191.88,28247.44 6191.99,28247.38"/>
    </edge>
    <edge id=":2166336879_0" function="internal">
        <lane id=":2166336879_0_0" index="0" allow="private emergency authority army vip passenger hov taxi bus coach delivery truck trailer motorcycle evehicle custom1 custom2" speed="22.22" length="0.20" shape="6196.45,28250.54 6196.56,28250.37"/>
    </edge>
    <edge id=":2166336906_0" function="internal">
        <lane id=":2166336906_0_0" index="0" allow="private emergency authority army vip passenger hov taxi bus coach delivery truck trailer motorcycle evehicle custom1 custom2" speed="22.22" length="6.69" shape="6161.46,28270.97 6162.61,28269.36 6163.26,28268.17 6163.78,28266.91 6164.56,28265.08"/>
    </edge>
    <edge id=":2166336906_1" function="internal">
        <lane id=":2166336906_1_0" index="0" allow="private emergency authority army vip passenger hov taxi bus coach delivery truck trailer motorcycle evehicle custom1 custom2" speed="22.22" length="6.89" shape="6163.99,28272.93 6165.14,28271.21 6165.75,28269.92 6166.38,28268.65 6167.59,28266.99"/>
        <lane id=":2166336906_1_1" index="1" allow="private emergency authority army vip passenger hov taxi bus coach delivery truck trailer motorcycle evehicle custom1 custom2" speed="22.22" length="6.89" shape="6166.52,28274.89 6167.64,28273.21 6168.23,28271.94 6168.85,28270.69 6170.03,28269.06"/>
    </edge>
    <edge id=":2166336924_0" function="internal">
        <lane id=":2166336924_0_0" index="0" allow="private emergency authority army vip passenger hov taxi bus coach delivery truck trailer motorcycle evehicle custom1 custom2" speed="22.22" length="16.38" shape="6178.71,28280.49 6175.35,28282.63 6171.91,28285.10 6168.69,28287.82 6166.00,28290.71"/>
    </edge>
    <edge id=":2166336924_1" function="internal">
        <lane id=":2166336924_1_0" index="0" allow="private emergency authority army vip passenger hov taxi bus coach delivery truck trailer motorcycle evehicle custom1 custom2" speed="22.22" length="16.34" shape="6176.08,28277.85 6166.00,28290.71"/>
    </edge>
    <edge id=":2166336961_0" function="internal">
        <lane id=":2166336961_0_0" index="0" allow="private emergency authority army vip passenger hov taxi bus coach delivery truck trailer motorcycle evehicle custom1 custom2" speed="22.22" length="0.10" shape="6388.07,28406.55 6388.07,28406.55"/>
    </edge>
    <edge id=":2166336965_0" function="internal">
        <lane id=":2166336965_0_0" index="0" allow="private emergency authority army vip passenger hov taxi bus coach delivery truck trailer motorcycle evehicle custom1 custom2" speed="22.22" length="0.25" shape="6397.03,28413.58 6397.02,28413.65 6397.01,28413.70 6397.00,28413.75 6396.98,28413.82"/>
    </edge>
    <edge id=":2166336987_0" function="internal">
        <lane id=":2166336987_0_0" index="0" allow="private emergency authority army vip passenger hov taxi bus coach delivery truck trailer motorcycle evehicle custom1 custom2" speed="21.45" length="11.84" shape="6372.27,28434.63 6373.17,28431.55 6373.32,28428.92 6373.11,28426.22 6372.89,28422.94"/>
    </edge>
    <edge id=":2166336987_1" function="internal">
        <lane id=":2166336987_1_0" index="0" allow="private emergency authority army vip passenger hov taxi bus coach delivery truck trailer motorcycle evehicle custom1 custom2" speed="22.22" length="11.82" shape="6372.27,28434.63 6376.53,28423.61"/>
    </edge>
    <edge id=":2166337008_0" function="internal">
        <lane id=":2166337008_0_0" index="0" allow="private emergency authority army vip passenger hov taxi bus coach delivery truck trailer motorcycle evehicle custom1 custom2" speed="22.22" length="9.87" shape="6389.77,28437.02 6387.15,28438.34 6385.30,28439.19 6383.60,28440.24 6381.42,28442.15"/>
    </edge>
    <edge id=":2166337008_1" function="internal">
        <lane id=":2166337008_1_0" index="0" allow="private emergency authority army vip passenger hov taxi bus coach delivery truck trailer motorcycle evehicle custom1 custom2" speed="22.22" length="9.86" shape="6387.20,28434.21 6385.63,28436.68 6384.60,28438.42 6383.42,28440.03 6381.42,28442.15"/>
    </edge>
    <edge id=":2168047875_0" function="internal">
        <lane id=":2168047875_0_0" index="0" allow="private emergency authority army vip passenger hov taxi bus coach delivery truck trailer motorcycle evehicle custom1 custom2" speed="18.37" length="8.70" shape="4997.13,29931.85 4999.71,29931.63 5001.53,29931.53 5003.24,29931.13 5005.50,29929.98"/>
    </edge>
    <edge id=":2168047875_1" function="internal">
        <lane id=":2168047875_1_0" index="0" allow="private emergency authority army vip passenger hov taxi bus coach delivery truck trailer motorcycle evehicle custom1 custom2" speed="22.22" length="8.70" shape="4998.75,29935.43 5000.66,29933.69 5001.96,29932.48 5003.34,29931.38 5005.50,29929.98"/>
    </edge>
    <edge id=":2168047899_0" function="internal">
        <lane id=":2168047899_0_0" index="0" allow="private emergency authority army vip passenger hov taxi bus coach delivery truck trailer motorcycle evehicle custom1 custom2" speed="22.22" length="0.66" shape="4986.70,29962.98 4986.78,29962.80 4986.82,29962.67 4986.84,29962.54 4986.85,29962.34"/>
    </edge>
    <edge id=":2168047956_0" function="internal">
        <lane id=":2168047956_0_0" index="0" allow="private emergency authority army vip passenger hov taxi bus coach delivery truck trailer motorcycle evehicle custom1 custom2" speed="22.22" length="0.22" shape="5173.06,30069.97 5172.90,30070.12"/>
    </edge>
    <edge id=":2755163194_0" function="internal">
        <lane id=":2755163194_0_0" index="0" allow="private emergency authority army vip passenger hov taxi bus coach delivery truck trailer motorcycle evehicle custom1 custom2" speed="22.22" length="12.15" shape="2108.10,34808.90 2101.01,34818.77"/>
    </edge>
    <edge id=":2755163194_1" function="internal">
        <lane id=":2755163194_1_0" index="0" allow="private emergency authority army vip passenger hov taxi bus coach delivery truck trailer motorcycle evehicle custom1 custom2" speed="22.22" length="12.17" shape="2104.89,34807.27 2104.00,34810.46 2103.30,34813.16 2102.42,34815.79 2101.01,34818.77"/>
    </edge>
    <edge id=":2755163195_0" function="internal">
        <lane id=":2755163195_0_0" index="0" allow="private emergency authority army vip passenger hov taxi bus coach delivery truck trailer motorcycle evehicle custom1 custom2" speed="10.38" length="6.53" shape="2058.22,34714.67 2057.32,34716.32 2057.04,34717.61 2057.11,34719.00 2057.24,34720.94"/>
        <lane id=":2755163195_0_1" index="1" allow="private emergency authority army vip passenger hov taxi bus coach delivery truck trailer motorcycle evehicle custom1 custom2" speed="11.56" length="8.16" shape="2055.55,34712.91 2054.38,34714.97 2053.93,34716.56 2053.92,34718.27 2054.03,34720.70"/>
    </edge>
    <edge id=":2755163195_2" function="internal">
        <lane id=":2755163195_2_0" index="0" allow="private emergency authority army vip passenger hov taxi bus coach delivery truck trailer motorcycle evehicle custom1 custom2" speed="22.22" length="8.55" shape="2052.88,34711.15 2051.84,34713.45 2051.65,34715.29 2051.41,34717.08 2050.20,34719.27"/>
        <lane id=":2755163195_2_1" index="1" allow="private emergency authority army vip passenger hov taxi bus coach delivery truck trailer motorcycle evehicle custom1 custom2" speed="22.22" length="8.55" shape="2050.21,34709.38 2049.21,34711.62 2049.05,34713.41 2048.84,34715.17 2047.69,34717.29"/>
    </edge>
    <edge id=":2755163197_0" function="internal">
        <lane id=":2755163197_0_0" index="0" allow="private emergency authority army vip passenger hov taxi bus coach delivery truck trailer motorcycle evehicle custom1 custom2" speed="22.22" length="0.39" shape="2061.80,34736.69 2061.83,34736.74 2061.85,34736.78 2061.87,34736.81 2061.91,34736.86"/>
        <lane id=":2755163197_0_1" index="1" allow="private emergency authority army vip passenger hov taxi bus coach delivery truck trailer motorcycle evehicle custom1 custom2" speed="22.22" length="0.39" shape="2058.97,34738.19 2059.06,34738.34 2059.11,34738.44 2059.18,34738.54 2059.28,34738.69"/>
    </edge>
    <edge id=":2755163199_0" function="internal">
        <lane id=":2755163199_0_0" index="0" allow="private emergency authority army vip passenger hov taxi bus coach delivery truck trailer motorcycle evehicle custom1 custom2" speed="14.50" length="9.87" shape="1878.13,34720.53 1878.48,34723.34 1879.32,34725.13 1880.61,34726.79 1882.31,34729.20"/>
    </edge>
    <edge id=":2755163199_1" function="internal">
        <lane id=":2755163199_1_0" index="0" allow="private emergency authority army vip passenger hov taxi bus coach delivery truck trailer motorcycle evehicle custom1 custom2" speed="22.22" length="9.40" shape="1878.13,34720.53 1878.33,34723.32 1878.60,34725.25 1878.68,34727.16 1878.30,34729.91"/>
        <lane id=":2755163199_1_1" index="1" allow="private emergency authority army vip passenger hov taxi bus coach delivery truck trailer motorcycle evehicle custom1 custom2" speed="22.22" length="9.40" shape="1878.13,34720.53 1877.84,34723.20 1877.03,34724.93 1876.03,34726.65 1875.16,34729.28"/>
    </edge>
    <edge id=":3205671866_0" function="internal">
        <lane id=":3205671866_0_0" index="0" allow="private emergency authority army vip passenger hov taxi bus coach delivery truck trailer motorcycle evehicle custom1 custom2" speed="22.22" length="0.31" shape="2028.70,34749.36 2028.62,34749.47 2028.57,34749.55 2028.51,34749.62 2028.42,34749.73"/>
        <lane id=":3205671866_0_1" index="1" allow="private emergency authority army vip passenger hov taxi bus coach delivery truck trailer motorcycle evehicle custom1 custom2" speed="22.22" length="0.31" shape="2026.04,34747.57 2026.02,34747.61 2026.00,34747.64 2025.98,34747.66 2025.95,34747.70"/>
    </edge>
    <edge id=":3790911952_0" function="internal">
        <lane id=":3790911952_0_0" index="0" allow="private emergency authority army vip passenger hov taxi bus coach delivery truck trailer motorcycle evehicle custom1 custom2" speed="22.22" length="0.10" shape="5228.64,29918.50 5228.64,29918.50"/>
    </edge>
    <edge id=":3790912183_0" function="internal">
        <lane id=":3790912183_0_0" index="0" allow="private emergency authority army vip passenger hov taxi bus coach delivery truck trailer motorcycle evehicle custom1 custom2" speed="22.22" length="8.47" shape="4859.02,30312.44 4859.47,30310.01 4859.01,30308.21 4858.52,30306.40 4858.89,30303.94"/>
        <lane id=":3790912183_0_1" index="1" allow="private emergency authority army vip passenger hov taxi bus coach delivery truck trailer motorcycle evehicle custom1 custom2" speed="22.22" length="8.47" shape="4859.02,30312.44 4861.90,30305.05"/>
        <lane id=":3790912183_0_2" index="2" allow="private emergency authority army vip passenger hov taxi bus coach delivery truck trailer motorcycle evehicle custom1 custom2" speed="22.22" length="8.47" shape="4859.02,30312.44 4860.42,30310.35 4862.02,30309.32 4863.58,30308.28 4864.90,30306.15"/>
    </edge>
    <edge id=":3790913629_0" function="internal">
        <lane id=":3790913629_0_0" index="0" allow="private emergency authority army vip passenger hov taxi bus coach delivery truck trailer motorcycle evehicle custom1 custom2" speed="22.22" length="0.21" shape="2108.70,34772.57 2108.74,34772.78"/>
    </edge>
    <edge id=":3791466325_0" function="internal">
        <lane id=":3791466325_0_0" index="0" allow="private emergency authority army vip passenger hov taxi bus coach delivery truck trailer motorcycle evehicle custom1 custom2" speed="22.22" length="0.24" shape="2034.15,34741.25 2034.04,34741.40"/>
        <lane id=":3791466325_0_1" index="1" allow="private emergency authority army vip passenger hov taxi bus coach delivery truck trailer motorcycle evehicle custom1 custom2" speed="22.22" length="0.24" shape="2031.55,34739.38 2031.38,34739.62"/>
    </edge>
    <edge id=":3791466338_0" function="internal">
        <lane id=":3791466338_0_0" index="0" allow="private emergency authority army vip passenger hov taxi bus coach delivery truck trailer motorcycle evehicle custom1 custom2" speed="22.22" length="0.30" shape="1857.99,34744.08 1858.05,34743.78"/>
    </edge>
    <edge id=":3791466339_0" function="internal">
        <lane id=":3791466339_0_0" index="0" allow="private emergency authority army vip passenger hov taxi bus coach delivery truck trailer motorcycle evehicle custom1 custom2" speed="22.22" length="0.33" shape="1875.44,34744.02 1875.41,34744.17 1875.39,34744.27 1875.36,34744.36 1875.32,34744.51"/>
        <lane id=":3791466339_0_1" index="1" allow="private emergency authority army vip passenger hov taxi bus coach delivery truck trailer motorcycle evehicle custom1 custom2" speed="22.22" length="0.33" shape="1872.30,34743.39 1872.29,34743.43 1872.29,34743.47 1872.28,34743.50 1872.26,34743.55"/>
    </edge>
    <edge id=":3797071525_0" function="internal">
        <lane id=":3797071525_0_0" index="0" allow="private emergency authority army vip passenger hov taxi bus coach delivery truck trailer motorcycle evehicle custom1 custom2" speed="22.22" length="0.30" shape="1872.89,34752.25 1872.80,34752.52"/>
        <lane id=":3797071525_0_1" index="1" allow="private emergency authority army vip passenger hov taxi bus coach delivery truck trailer motorcycle evehicle custom1 custom2" speed="22.22" length="0.30" shape="1869.83,34751.29 1869.74,34751.59"/>
    </edge>
    <edge id=":3797071528_0" function="internal">
        <lane id=":3797071528_0_0" index="0" allow="private emergency authority army vip passenger hov taxi bus coach delivery truck trailer motorcycle evehicle custom1 custom2" speed="5.82" length="9.14" shape="1874.43,34766.56 1872.26,34765.00 1870.38,34764.73 1868.79,34765.77 1867.50,34768.10"/>
    </edge>
    <edge id=":3797071528_1" function="internal">
        <lane id=":3797071528_1_0" index="0" allow="private emergency authority army vip passenger hov taxi bus coach delivery truck trailer motorcycle evehicle custom1 custom2" speed="22.22" length="16.23" shape="1874.43,34766.56 1862.27,34755.80"/>
    </edge>
    <edge id=":3797071528_2" function="internal">
        <lane id=":3797071528_2_0" index="0" allow="private emergency authority army vip passenger hov taxi bus coach delivery truck trailer motorcycle evehicle custom1 custom2" speed="22.22" length="14.10" shape="1872.14,34754.67 1867.50,34768.10"/>
        <lane id=":3797071528_2_1" index="1" allow="private emergency authority army vip passenger hov taxi bus coach delivery truck trailer motorcycle evehicle custom1 custom2" speed="22.22" length="14.10" shape="1869.08,34753.74 1864.51,34766.95"/>
    </edge>
    <edge id=":3797071528_4" function="internal">
        <lane id=":3797071528_4_0" index="0" allow="private emergency authority army vip passenger hov taxi bus coach delivery truck trailer motorcycle evehicle custom1 custom2" speed="5.83" length="9.13" shape="1869.08,34753.74 1867.95,34756.15 1866.44,34757.30 1864.55,34757.18 1862.27,34755.80"/>
    </edge>
    <edge id=":3797105806_0" function="internal">
        <lane id=":3797105806_0_0" index="0" allow="private emergency authority army vip passenger hov taxi bus coach delivery truck trailer motorcycle evehicle custom1 custom2" speed="22.22" length="8.04" shape="2224.48,34444.55 2223.58,34446.75 2223.29,34448.40 2222.96,34450.03 2221.94,34452.17"/>
        <lane id=":3797105806_0_1" index="1" allow="private emergency authority army vip passenger hov taxi bus coach delivery truck trailer motorcycle evehicle custom1 custom2" speed="22.22" length="8.04" shape="2224.48,34444.55 2223.16,34446.48 2221.92,34447.56 2220.65,34448.62 2219.21,34450.49"/>
    </edge>
    <edge id=":3801708428_0" function="internal">
        <lane id=":3801708428_0_0" index="0" allow="private emergency authority army vip passenger hov taxi bus coach delivery truck trailer motorcycle evehicle custom1 custom2" speed="22.22" length="0.73" shape="4987.04,29952.93 4987.05,29952.72 4987.07,29952.57 4987.12,29952.43 4987.22,29952.24"/>
    </edge>
    <edge id=":3801708436_0" function="internal">
        <lane id=":3801708436_0_0" index="0" allow="private emergency authority army vip passenger hov taxi bus coach delivery truck trailer motorcycle evehicle custom1 custom2" speed="22.22" length="0.33" shape="4971.29,29985.98 4971.49,29985.43"/>
        <lane id=":3801708436_0_1" index="1" allow="private emergency authority army vip passenger hov taxi bus coach delivery truck trailer motorcycle evehicle custom1 custom2" speed="22.22" length="0.33" shape="4974.32,29987.00 4974.46,29986.61"/>
        <lane id=":3801708436_0_2" index="2" allow="private emergency authority army vip passenger hov taxi bus coach delivery truck trailer motorcycle evehicle custom1 custom2" speed="22.22" length="0.33" shape="4977.35,29988.02 4977.44,29987.79"/>
        <lane id=":3801708436_0_3" index="3" allow="private emergency authority army vip passenger hov taxi bus coach delivery truck trailer motorcycle evehicle custom1 custom2" speed="22.22" length="0.33" shape="4980.39,29989.05 4980.42,29988.97"/>
    </edge>
    <edge id=":3801708447_0" function="internal">
        <lane id=":3801708447_0_0" index="0" allow="private emergency authority army vip passenger hov taxi bus coach delivery truck trailer motorcycle evehicle custom1 custom2" speed="22.22" length="0.53" shape="5179.43,30064.04 5179.35,30064.17 5179.29,30064.26 5179.22,30064.34 5179.11,30064.45"/>
    </edge>
    <edge id=":3801708452_0" function="internal">
        <lane id=":3801708452_0_0" index="0" allow="private emergency authority army vip passenger hov taxi bus coach delivery truck trailer motorcycle evehicle custom1 custom2" speed="22.22" length="0.10" shape="5153.40,30091.41 5153.40,30091.41"/>
    </edge>
    <edge id=":4072649431_0" function="internal">
        <lane id=":4072649431_0_0" index="0" allow="private emergency authority army vip passenger hov taxi bus coach delivery truck trailer motorcycle evehicle custom1 custom2" speed="31.29" length="8.21" shape="13578.75,17139.36 13578.15,17141.70 13578.11,17143.39 13578.07,17145.09 13577.47,17147.42"/>
        <lane id=":4072649431_0_1" index="1" allow="private emergency authority army vip passenger hov taxi bus coach delivery truck trailer motorcycle evehicle custom1 custom2" speed="31.29" length="8.21" shape="13575.75,17138.25 13575.15,17140.59 13575.11,17142.28 13575.07,17143.97 13574.47,17146.31"/>
        <lane id=":4072649431_0_2" index="2" allow="private emergency authority army vip passenger hov taxi bus coach delivery truck trailer motorcycle evehicle custom1 custom2" speed="31.29" length="8.21" shape="13572.75,17137.14 13572.15,17139.48 13572.11,17141.17 13572.07,17142.86 13571.47,17145.20"/>
    </edge>
    <edge id=":4072649836_0" function="internal">
        <lane id=":4072649836_0_0" index="0" allow="private emergency authority army vip passenger hov taxi bus coach delivery truck trailer motorcycle evehicle custom1 custom2" speed="31.29" length="8.21" shape="7503.60,26603.79 7504.46,26601.54 7504.69,26599.86 7504.91,26598.18 7505.77,26595.92"/>
        <lane id=":4072649836_0_1" index="1" allow="private emergency authority army vip passenger hov taxi bus coach delivery truck trailer motorcycle evehicle custom1 custom2" speed="31.29" length="8.21" shape="7506.46,26605.23 7507.31,26602.97 7507.54,26601.30 7507.77,26599.62 7508.63,26597.36"/>
        <lane id=":4072649836_0_2" index="2" allow="private emergency authority army vip passenger hov taxi bus coach delivery truck trailer motorcycle evehicle custom1 custom2" speed="31.29" length="8.21" shape="7509.32,26606.67 7510.17,26604.41 7510.40,26602.73 7510.63,26601.05 7511.49,26598.80"/>
    </edge>
    <edge id=":4072649841_0" function="internal">
        <lane id=":4072649841_0_0" index="0" allow="private emergency authority army vip passenger hov taxi bus coach delivery truck trailer motorcycle evehicle custom1 custom2" speed="31.29" length="0.10" shape="7453.72,26695.74 7453.72,26695.74"/>
        <lane id=":4072649841_0_1" index="1" allow="private emergency authority army vip passenger hov taxi bus coach delivery truck trailer motorcycle evehicle custom1 custom2" speed="31.29" length="0.10" shape="7456.58,26697.18 7456.58,26697.18"/>
        <lane id=":4072649841_0_2" index="2" allow="private emergency authority army vip passenger hov taxi bus coach delivery truck trailer motorcycle evehicle custom1 custom2" speed="31.29" length="0.10" shape="7459.44,26698.62 7459.44,26698.62"/>
        <lane id=":4072649841_0_3" index="3" allow="private emergency authority army vip passenger hov taxi bus coach delivery truck trailer motorcycle evehicle custom1 custom2" speed="31.29" length="0.10" shape="7462.30,26700.06 7462.30,26700.06"/>
    </edge>
    <edge id=":4072649843_0" function="internal">
        <lane id=":4072649843_0_0" index="0" allow="private emergency authority army vip passenger hov taxi bus coach delivery truck trailer motorcycle evehicle custom1 custom2" speed="31.29" length="8.21" shape="7478.38,26720.73 7477.53,26722.98 7477.30,26724.66 7477.08,26726.34 7476.23,26728.60"/>
        <lane id=":4072649843_0_1" index="1" allow="private emergency authority army vip passenger hov taxi bus coach delivery truck trailer motorcycle evehicle custom1 custom2" speed="31.29" length="8.21" shape="7478.38,26720.73 7477.08,26722.76 7475.87,26723.95 7474.66,26725.13 7473.37,26727.17"/>