<?xml version="1.0" encoding="UTF-8"?>

<!-- generated on 2021-08-23 16:09:58 by Eclipse SUMO netconvert Version 1.9.1
<configuration xmlns:xsi="http://www.w3.org/2001/XMLSchema-instance" xsi:noNamespaceSchemaLocation="http://sumo.dlr.de/xsd/netconvertConfiguration.xsd">

    <input>
        <osm-files value="interpreter.osm.xml"/>
    </input>

    <output>
        <output-file value="out.net.xml"/>
    </output>

    <projection>
        <proj.utm value="true"/>
    </projection>

    <report>
        <aggregate-warnings value="5"/>
    </report>

</configuration>
-->

<net version="1.9" junctionCornerDetail="5" limitTurnSpeed="5.50" xmlns:xsi="http://www.w3.org/2001/XMLSchema-instance" xsi:noNamespaceSchemaLocation="http://sumo.dlr.de/xsd/net_file.xsd">

    <location netOffset="-360717.80,-3238174.91" convBoundary="0.00,0.00,23346.82,46176.41" origBoundary="-82.439468,29.267154,-82.193339,29.681419" projParameter="+proj=utm +zone=17 +ellps=WGS84 +datum=WGS84 +units=m +no_defs"/>

    <type id="highway.bridleway" priority="1" numLanes="1" speed="2.78" allow="pedestrian" oneway="1" width="2.00"/>
    <type id="highway.bus_guideway" priority="1" numLanes="1" speed="27.78" allow="bus" oneway="1"/>
    <type id="highway.cycleway" priority="1" numLanes="1" speed="8.33" allow="bicycle" oneway="0" width="1.00"/>
    <type id="highway.footway" priority="1" numLanes="1" speed="2.78" allow="pedestrian" oneway="1" width="2.00"/>
    <type id="highway.ford" priority="1" numLanes="1" speed="2.78" allow="army" oneway="0"/>
    <type id="highway.living_street" priority="2" numLanes="1" speed="2.78" disallow="tram rail_urban rail rail_electric rail_fast ship" oneway="0"/>
    <type id="highway.motorway" priority="14" numLanes="2" speed="39.44" allow="private emergency authority army vip passenger hov taxi bus coach delivery truck trailer motorcycle evehicle custom1 custom2" oneway="1"/>
    <type id="highway.motorway_link" priority="9" numLanes="1" speed="22.22" allow="private emergency authority army vip passenger hov taxi bus coach delivery truck trailer motorcycle evehicle custom1 custom2" oneway="1"/>
    <type id="highway.path" priority="1" numLanes="1" speed="2.78" allow="pedestrian bicycle" oneway="0" width="2.00"/>
    <type id="highway.pedestrian" priority="1" numLanes="1" speed="2.78" allow="pedestrian" oneway="1" width="2.00"/>
    <type id="highway.primary" priority="12" numLanes="2" speed="27.78" disallow="tram rail_urban rail rail_electric rail_fast ship" oneway="0"/>
    <type id="highway.primary_link" priority="7" numLanes="1" speed="22.22" disallow="tram rail_urban rail rail_electric rail_fast ship" oneway="0"/>
    <type id="highway.raceway" priority="15" numLanes="2" speed="83.33" allow="vip" oneway="0"/>
    <type id="highway.residential" priority="3" numLanes="1" speed="13.89" disallow="tram rail_urban rail rail_electric rail_fast ship" oneway="0"/>
    <type id="highway.secondary" priority="11" numLanes="1" speed="27.78" disallow="tram rail_urban rail rail_electric rail_fast ship" oneway="0"/>
    <type id="highway.secondary_link" priority="6" numLanes="1" speed="22.22" disallow="tram rail_urban rail rail_electric rail_fast ship" oneway="0"/>
    <type id="highway.service" priority="1" numLanes="1" speed="5.56" allow="pedestrian delivery bicycle" oneway="0"/>
    <type id="highway.stairs" priority="1" numLanes="1" speed="1.39" allow="pedestrian" oneway="1" width="2.00"/>
    <type id="highway.step" priority="1" numLanes="1" speed="1.39" allow="pedestrian" oneway="1" width="2.00"/>
    <type id="highway.steps" priority="1" numLanes="1" speed="1.39" allow="pedestrian" oneway="1" width="2.00"/>
    <type id="highway.tertiary" priority="10" numLanes="1" speed="22.22" disallow="tram rail_urban rail rail_electric rail_fast ship" oneway="0"/>
    <type id="highway.tertiary_link" priority="5" numLanes="1" speed="22.22" disallow="tram rail_urban rail rail_electric rail_fast ship" oneway="0"/>
    <type id="highway.track" priority="1" numLanes="1" speed="5.56" allow="pedestrian motorcycle moped bicycle" oneway="0"/>
    <type id="highway.trunk" priority="13" numLanes="2" speed="27.78" disallow="pedestrian bicycle tram rail_urban rail rail_electric rail_fast ship" oneway="0"/>
    <type id="highway.trunk_link" priority="8" numLanes="1" speed="22.22" disallow="pedestrian bicycle tram rail_urban rail rail_electric rail_fast ship" oneway="0"/>
    <type id="highway.unclassified" priority="4" numLanes="1" speed="13.89" disallow="tram rail_urban rail rail_electric rail_fast ship" oneway="0"/>
    <type id="highway.unsurfaced" priority="1" numLanes="1" speed="8.33" disallow="tram rail_urban rail rail_electric rail_fast ship" oneway="0"/>
    <type id="railway.highspeed" priority="21" numLanes="1" speed="69.44" allow="rail_fast" oneway="1"/>
    <type id="railway.light_rail" priority="19" numLanes="1" speed="27.78" allow="rail_urban" oneway="1"/>
    <type id="railway.preserved" priority="16" numLanes="1" speed="27.78" allow="rail" oneway="1"/>
    <type id="railway.rail" priority="20" numLanes="1" speed="44.44" allow="rail" oneway="1"/>
    <type id="railway.subway" priority="18" numLanes="1" speed="27.78" allow="rail_urban" oneway="1"/>
    <type id="railway.tram" priority="17" numLanes="1" speed="13.89" allow="tram" oneway="1"/>

    <edge id=":1746843072_0" function="internal">
        <lane id=":1746843072_0_0" index="0" allow="private emergency authority army vip passenger hov taxi bus coach delivery truck trailer motorcycle evehicle custom1 custom2" speed="31.29" length="0.30" shape="4113.33,40650.09 4113.18,40650.34"/>
        <lane id=":1746843072_0_1" index="1" allow="private emergency authority army vip passenger hov taxi bus coach delivery truck trailer motorcycle evehicle custom1 custom2" speed="31.29" length="0.30" shape="4110.58,40648.44 4110.43,40648.70"/>
        <lane id=":1746843072_0_2" index="2" allow="private emergency authority army vip passenger hov taxi bus coach delivery truck trailer motorcycle evehicle custom1 custom2" speed="31.29" length="0.30" shape="4107.84,40646.80 4107.68,40647.06"/>
    </edge>
    <edge id=":1746843079_0" function="internal">
        <lane id=":1746843079_0_0" index="0" allow="private emergency authority army vip passenger hov taxi bus coach delivery truck trailer motorcycle evehicle custom1 custom2" speed="31.29" length="0.30" shape="4064.49,40674.09 4064.63,40673.86"/>
        <lane id=":1746843079_0_1" index="1" allow="private emergency authority army vip passenger hov taxi bus coach delivery truck trailer motorcycle evehicle custom1 custom2" speed="31.29" length="0.30" shape="4067.22,40675.75 4067.37,40675.50"/>
        <lane id=":1746843079_0_2" index="2" allow="private emergency authority army vip passenger hov taxi bus coach delivery truck trailer motorcycle evehicle custom1 custom2" speed="31.29" length="0.30" shape="4069.96,40677.42 4070.12,40677.14"/>
    </edge>
    <edge id=":1746843160_0" function="internal">
        <lane id=":1746843160_0_0" index="0" allow="private emergency authority army vip passenger hov taxi bus coach delivery truck trailer motorcycle evehicle custom1 custom2" speed="31.29" length="0.30" shape="4090.27,40688.67 4090.11,40688.93"/>
        <lane id=":1746843160_0_1" index="1" allow="private emergency authority army vip passenger hov taxi bus coach delivery truck trailer motorcycle evehicle custom1 custom2" speed="31.29" length="0.30" shape="4087.52,40687.03 4087.37,40687.28"/>
        <lane id=":1746843160_0_2" index="2" allow="private emergency authority army vip passenger hov taxi bus coach delivery truck trailer motorcycle evehicle custom1 custom2" speed="31.29" length="0.30" shape="4084.77,40685.38 4084.62,40685.64"/>
    </edge>
    <edge id=":2166336876_0" function="internal">
        <lane id=":2166336876_0_0" index="0" allow="private emergency authority army vip passenger hov taxi bus coach delivery truck trailer motorcycle evehicle custom1 custom2" speed="22.22" length="0.25" shape="6190.18,37224.42 6190.50,37224.23"/>
        <lane id=":2166336876_0_1" index="1" allow="private emergency authority army vip passenger hov taxi bus coach delivery truck trailer motorcycle evehicle custom1 custom2" speed="22.22" length="0.25" shape="6191.88,37227.13 6191.99,37227.07"/>
    </edge>
    <edge id=":2166336879_0" function="internal">
        <lane id=":2166336879_0_0" index="0" allow="private emergency authority army vip passenger hov taxi bus coach delivery truck trailer motorcycle evehicle custom1 custom2" speed="22.22" length="0.20" shape="6196.45,37230.22 6196.56,37230.05"/>
    </edge>
    <edge id=":2166336906_0" function="internal">
        <lane id=":2166336906_0_0" index="0" allow="private emergency authority army vip passenger hov taxi bus coach delivery truck trailer motorcycle evehicle custom1 custom2" speed="22.22" length="6.69" shape="6161.46,37250.65 6162.61,37249.05 6163.26,37247.86 6163.78,37246.59 6164.56,37244.76"/>
    </edge>
    <edge id=":2166336906_1" function="internal">
        <lane id=":2166336906_1_0" index="0" allow="private emergency authority army vip passenger hov taxi bus coach delivery truck trailer motorcycle evehicle custom1 custom2" speed="22.22" length="6.89" shape="6163.99,37252.61 6165.14,37250.90 6165.75,37249.61 6166.38,37248.34 6167.59,37246.68"/>
        <lane id=":2166336906_1_1" index="1" allow="private emergency authority army vip passenger hov taxi bus coach delivery truck trailer motorcycle evehicle custom1 custom2" speed="22.22" length="6.89" shape="6166.52,37254.57 6167.64,37252.89 6168.23,37251.62 6168.85,37250.37 6170.03,37248.75"/>
    </edge>
    <edge id=":2166336924_0" function="internal">
        <lane id=":2166336924_0_0" index="0" allow="private emergency authority army vip passenger hov taxi bus coach delivery truck trailer motorcycle evehicle custom1 custom2" speed="22.22" length="16.38" shape="6178.71,37260.18 6175.35,37262.31 6171.91,37264.78 6168.69,37267.50 6166.00,37270.40"/>
    </edge>
    <edge id=":2166336924_1" function="internal">
        <lane id=":2166336924_1_0" index="0" allow="private emergency authority army vip passenger hov taxi bus coach delivery truck trailer motorcycle evehicle custom1 custom2" speed="22.22" length="16.34" shape="6176.08,37257.53 6166.00,37270.40"/>
    </edge>
    <edge id=":2166336961_0" function="internal">
        <lane id=":2166336961_0_0" index="0" allow="private emergency authority army vip passenger hov taxi bus coach delivery truck trailer motorcycle evehicle custom1 custom2" speed="22.22" length="0.10" shape="6388.07,37386.23 6388.07,37386.23"/>
    </edge>
    <edge id=":2166336965_0" function="internal">
        <lane id=":2166336965_0_0" index="0" allow="private emergency authority army vip passenger hov taxi bus coach delivery truck trailer motorcycle evehicle custom1 custom2" speed="22.22" length="0.25" shape="6397.03,37393.26 6397.02,37393.34 6397.01,37393.39 6397.00,37393.44 6396.98,37393.51"/>
    </edge>
    <edge id=":2166336987_0" function="internal">
        <lane id=":2166336987_0_0" index="0" allow="private emergency authority army vip passenger hov taxi bus coach delivery truck trailer motorcycle evehicle custom1 custom2" speed="21.45" length="11.84" shape="6372.27,37414.32 6373.17,37411.23 6373.32,37408.60 6373.11,37405.91 6372.89,37402.62"/>
    </edge>
    <edge id=":2166336987_1" function="internal">
        <lane id=":2166336987_1_0" index="0" allow="private emergency authority army vip passenger hov taxi bus coach delivery truck trailer motorcycle evehicle custom1 custom2" speed="22.22" length="11.82" shape="6372.27,37414.32 6376.53,37403.29"/>
    </edge>
    <edge id=":2166337008_0" function="internal">
        <lane id=":2166337008_0_0" index="0" allow="private emergency authority army vip passenger hov taxi bus coach delivery truck trailer motorcycle evehicle custom1 custom2" speed="22.22" length="9.87" shape="6389.77,37416.71 6387.15,37418.03 6385.30,37418.87 6383.60,37419.92 6381.42,37421.83"/>
    </edge>
    <edge id=":2166337008_1" function="internal">
        <lane id=":2166337008_1_0" index="0" allow="private emergency authority army vip passenger hov taxi bus coach delivery truck trailer motorcycle evehicle custom1 custom2" speed="22.22" length="9.86" shape="6387.20,37413.89 6385.63,37416.37 6384.60,37418.10 6383.42,37419.72 6381.42,37421.83"/>
    </edge>
    <edge id=":2168047875_0" function="internal">
        <lane id=":2168047875_0_0" index="0" allow="private emergency authority army vip passenger hov taxi bus coach delivery truck trailer motorcycle evehicle custom1 custom2" speed="18.37" length="8.70" shape="4997.13,38911.54 4999.71,38911.31 5001.53,38911.21 5003.24,38910.81 5005.50,38909.67"/>
    </edge>
    <edge id=":2168047875_1" function="internal">
        <lane id=":2168047875_1_0" index="0" allow="private emergency authority army vip passenger hov taxi bus coach delivery truck trailer motorcycle evehicle custom1 custom2" speed="22.22" length="8.70" shape="4998.75,38915.11 5000.66,38913.38 5001.96,38912.16 5003.34,38911.06 5005.50,38909.67"/>
    </edge>
    <edge id=":2168047899_0" function="internal">
        <lane id=":2168047899_0_0" index="0" allow="private emergency authority army vip passenger hov taxi bus coach delivery truck trailer motorcycle evehicle custom1 custom2" speed="22.22" length="0.66" shape="4986.70,38942.66 4986.78,38942.48 4986.82,38942.35 4986.84,38942.22 4986.85,38942.02"/>
    </edge>
    <edge id=":2168047956_0" function="internal">
        <lane id=":2168047956_0_0" index="0" allow="private emergency authority army vip passenger hov taxi bus coach delivery truck trailer motorcycle evehicle custom1 custom2" speed="22.22" length="0.22" shape="5173.06,39049.65 5172.90,39049.80"/>
    </edge>
    <edge id=":2755163194_0" function="internal">
        <lane id=":2755163194_0_0" index="0" allow="private emergency authority army vip passenger hov taxi bus coach delivery truck trailer motorcycle evehicle custom1 custom2" speed="22.22" length="12.15" shape="2108.10,43788.59 2101.01,43798.45"/>
    </edge>
    <edge id=":2755163194_1" function="internal">
        <lane id=":2755163194_1_0" index="0" allow="private emergency authority army vip passenger hov taxi bus coach delivery truck trailer motorcycle evehicle custom1 custom2" speed="22.22" length="12.17" shape="2104.89,43786.95 2104.00,43790.15 2103.30,43792.85 2102.42,43795.47 2101.01,43798.45"/>
    </edge>
    <edge id=":2755163195_0" function="internal">
        <lane id=":2755163195_0_0" index="0" allow="private emergency authority army vip passenger hov taxi bus coach delivery truck trailer motorcycle evehicle custom1 custom2" speed="10.38" length="6.53" shape="2058.22,43694.36 2057.32,43696.01 2057.04,43697.29 2057.11,43698.68 2057.24,43700.62"/>
        <lane id=":2755163195_0_1" index="1" allow="private emergency authority army vip passenger hov taxi bus coach delivery truck trailer motorcycle evehicle custom1 custom2" speed="11.56" length="8.16" shape="2055.55,43692.59 2054.38,43694.65 2053.93,43696.24 2053.92,43697.96 2054.03,43700.38"/>
    </edge>
    <edge id=":2755163195_2" function="internal">
        <lane id=":2755163195_2_0" index="0" allow="private emergency authority army vip passenger hov taxi bus coach delivery truck trailer motorcycle evehicle custom1 custom2" speed="22.22" length="8.55" shape="2052.88,43690.83 2051.84,43693.13 2051.65,43694.97 2051.41,43696.77 2050.20,43698.95"/>
        <lane id=":2755163195_2_1" index="1" allow="private emergency authority army vip passenger hov taxi bus coach delivery truck trailer motorcycle evehicle custom1 custom2" speed="22.22" length="8.55" shape="2050.21,43689.07 2049.21,43691.31 2049.05,43693.10 2048.84,43694.85 2047.69,43696.97"/>
    </edge>
    <edge id=":2755163197_0" function="internal">
        <lane id=":2755163197_0_0" index="0" allow="private emergency authority army vip passenger hov taxi bus coach delivery truck trailer motorcycle evehicle custom1 custom2" speed="22.22" length="0.39" shape="2061.80,43716.37 2061.83,43716.43 2061.85,43716.46 2061.87,43716.49 2061.91,43716.54"/>
        <lane id=":2755163197_0_1" index="1" allow="private emergency authority army vip passenger hov taxi bus coach delivery truck trailer motorcycle evehicle custom1 custom2" speed="22.22" length="0.39" shape="2058.97,43717.87 2059.06,43718.02 2059.11,43718.13 2059.18,43718.23 2059.28,43718.37"/>
    </edge>
    <edge id=":2755163199_0" function="internal">
        <lane id=":2755163199_0_0" index="0" allow="private emergency authority army vip passenger hov taxi bus coach delivery truck trailer motorcycle evehicle custom1 custom2" speed="14.50" length="9.87" shape="1878.13,43700.21 1878.48,43703.02 1879.32,43704.81 1880.61,43706.47 1882.31,43708.88"/>
    </edge>
    <edge id=":2755163199_1" function="internal">
        <lane id=":2755163199_1_0" index="0" allow="private emergency authority army vip passenger hov taxi bus coach delivery truck trailer motorcycle evehicle custom1 custom2" speed="22.22" length="9.40" shape="1878.13,43700.21 1878.33,43703.01 1878.60,43704.94 1878.68,43706.85 1878.30,43709.59"/>
        <lane id=":2755163199_1_1" index="1" allow="private emergency authority army vip passenger hov taxi bus coach delivery truck trailer motorcycle evehicle custom1 custom2" speed="22.22" length="9.40" shape="1878.13,43700.21 1877.84,43702.89 1877.03,43704.62 1876.03,43706.33 1875.16,43708.96"/>
    </edge>
    <edge id=":3205671866_0" function="internal">
        <lane id=":3205671866_0_0" index="0" allow="private emergency authority army vip passenger hov taxi bus coach delivery truck trailer motorcycle evehicle custom1 custom2" speed="22.22" length="0.31" shape="2028.70,43729.04 2028.62,43729.15 2028.57,43729.23 2028.51,43729.30 2028.42,43729.41"/>
        <lane id=":3205671866_0_1" index="1" allow="private emergency authority army vip passenger hov taxi bus coach delivery truck trailer motorcycle evehicle custom1 custom2" speed="22.22" length="0.31" shape="2026.04,43727.25 2026.02,43727.29 2026.00,43727.32 2025.98,43727.34 2025.95,43727.38"/>
    </edge>
    <edge id=":3790911952_0" function="internal">
        <lane id=":3790911952_0_0" index="0" allow="private emergency authority army vip passenger hov taxi bus coach delivery truck trailer motorcycle evehicle custom1 custom2" speed="22.22" length="0.10" shape="5228.64,38898.18 5228.64,38898.18"/>
    </edge>
    <edge id=":3790912183_0" function="internal">
        <lane id=":3790912183_0_0" index="0" allow="private emergency authority army vip passenger hov taxi bus coach delivery truck trailer motorcycle evehicle custom1 custom2" speed="22.22" length="8.47" shape="4859.02,39292.12 4859.47,39289.70 4859.01,39287.89 4858.52,39286.08 4858.89,39283.62"/>
        <lane id=":3790912183_0_1" index="1" allow="private emergency authority army vip passenger hov taxi bus coach delivery truck trailer motorcycle evehicle custom1 custom2" speed="22.22" length="8.47" shape="4859.02,39292.12 4861.90,39284.73"/>
        <lane id=":3790912183_0_2" index="2" allow="private emergency authority army vip passenger hov taxi bus coach delivery truck trailer motorcycle evehicle custom1 custom2" speed="22.22" length="8.47" shape="4859.02,39292.12 4860.42,39290.03 4862.02,39289.00 4863.58,39287.96 4864.90,39285.84"/>
    </edge>
    <edge id=":3790913629_0" function="internal">
        <lane id=":3790913629_0_0" index="0" allow="private emergency authority army vip passenger hov taxi bus coach delivery truck trailer motorcycle evehicle custom1 custom2" speed="22.22" length="0.21" shape="2108.70,43752.25 2108.74,43752.47"/>
    </edge>
    <edge id=":3791466325_0" function="internal">
        <lane id=":3791466325_0_0" index="0" allow="private emergency authority army vip passenger hov taxi bus coach delivery truck trailer motorcycle evehicle custom1 custom2" speed="22.22" length="0.24" shape="2034.15,43720.93 2034.04,43721.09"/>
        <lane id=":3791466325_0_1" index="1" allow="private emergency authority army vip passenger hov taxi bus coach delivery truck trailer motorcycle evehicle custom1 custom2" speed="22.22" length="0.24" shape="2031.55,43719.06 2031.38,43719.30"/>
    </edge>
    <edge id=":3791466338_0" function="internal">
        <lane id=":3791466338_0_0" index="0" allow="private emergency authority army vip passenger hov taxi bus coach delivery truck trailer motorcycle evehicle custom1 custom2" speed="22.22" length="0.30" shape="1857.99,43723.76 1858.05,43723.46"/>
    </edge>
    <edge id=":3791466339_0" function="internal">
        <lane id=":3791466339_0_0" index="0" allow="private emergency authority army vip passenger hov taxi bus coach delivery truck trailer motorcycle evehicle custom1 custom2" speed="22.22" length="0.33" shape="1875.44,43723.70 1875.41,43723.85 1875.39,43723.95 1875.36,43724.05 1875.32,43724.19"/>
        <lane id=":3791466339_0_1" index="1" allow="private emergency authority army vip passenger hov taxi bus coach delivery truck trailer motorcycle evehicle custom1 custom2" speed="22.22" length="0.33" shape="1872.30,43723.07 1872.29,43723.12 1872.29,43723.15 1872.28,43723.18 1872.26,43723.23"/>
    </edge>
    <edge id=":3797071525_0" function="internal">
        <lane id=":3797071525_0_0" index="0" allow="private emergency authority army vip passenger hov taxi bus coach delivery truck trailer motorcycle evehicle custom1 custom2" speed="22.22" length="0.30" shape="1872.89,43731.93 1872.80,43732.21"/>
        <lane id=":3797071525_0_1" index="1" allow="private emergency authority army vip passenger hov taxi bus coach delivery truck trailer motorcycle evehicle custom1 custom2" speed="22.22" length="0.30" shape="1869.83,43730.97 1869.74,43731.27"/>
    </edge>
    <edge id=":3797071528_0" function="internal">
        <lane id=":3797071528_0_0" index="0" allow="private emergency authority army vip passenger hov taxi bus coach delivery truck trailer motorcycle evehicle custom1 custom2" speed="5.82" length="9.14" shape="1874.43,43746.24 1872.26,43744.68 1870.38,43744.41 1868.79,43745.45 1867.50,43747.79"/>
    </edge>
    <edge id=":3797071528_1" function="internal">
        <lane id=":3797071528_1_0" index="0" allow="private emergency authority army vip passenger hov taxi bus coach delivery truck trailer motorcycle evehicle custom1 custom2" speed="22.22" length="16.23" shape="1874.43,43746.24 1862.27,43735.48"/>
    </edge>
    <edge id=":3797071528_2" function="internal">
        <lane id=":3797071528_2_0" index="0" allow="private emergency authority army vip passenger hov taxi bus coach delivery truck trailer motorcycle evehicle custom1 custom2" speed="22.22" length="14.10" shape="1872.14,43734.36 1867.50,43747.79"/>
        <lane id=":3797071528_2_1" index="1" allow="private emergency authority army vip passenger hov taxi bus coach delivery truck trailer motorcycle evehicle custom1 custom2" speed="22.22" length="14.10" shape="1869.08,43733.42 1864.51,43746.63"/>
    </edge>
    <edge id=":3797071528_4" function="internal">
        <lane id=":3797071528_4_0" index="0" allow="private emergency authority army vip passenger hov taxi bus coach delivery truck trailer motorcycle evehicle custom1 custom2" speed="5.83" length="9.13" shape="1869.08,43733.42 1867.95,43735.84 1866.44,43736.99 1864.55,43736.87 1862.27,43735.48"/>
    </edge>
    <edge id=":3797105806_0" function="internal">
        <lane id=":3797105806_0_0" index="0" allow="private emergency authority army vip passenger hov taxi bus coach delivery truck trailer motorcycle evehicle custom1 custom2" speed="22.22" length="8.04" shape="2224.48,43424.23 2223.58,43426.43 2223.29,43428.08 2222.96,43429.71 2221.94,43431.85"/>
        <lane id=":3797105806_0_1" index="1" allow="private emergency authority army vip passenger hov taxi bus coach delivery truck trailer motorcycle evehicle custom1 custom2" speed="22.22" length="8.04" shape="2224.48,43424.23 2223.16,43426.16 2221.92,43427.24 2220.65,43428.31 2219.21,43430.17"/>
    </edge>
    <edge id=":3801708428_0" function="internal">
        <lane id=":3801708428_0_0" index="0" allow="private emergency authority army vip passenger hov taxi bus coach delivery truck trailer motorcycle evehicle custom1 custom2" speed="22.22" length="0.73" shape="4987.04,38932.61 4987.05,38932.40 4987.07,38932.25 4987.12,38932.11 4987.22,38931.92"/>
    </edge>
    <edge id=":3801708436_0" function="internal">
        <lane id=":3801708436_0_0" index="0" allow="private emergency authority army vip passenger hov taxi bus coach delivery truck trailer motorcycle evehicle custom1 custom2" speed="22.22" length="0.33" shape="4971.29,38965.66 4971.49,38965.12"/>
        <lane id=":3801708436_0_1" index="1" allow="private emergency authority army vip passenger hov taxi bus coach delivery truck trailer motorcycle evehicle custom1 custom2" speed="22.22" length="0.33" shape="4974.32,38966.68 4974.46,38966.29"/>
        <lane id=":3801708436_0_2" index="2" allow="private emergency authority army vip passenger hov taxi bus coach delivery truck trailer motorcycle evehicle custom1 custom2" speed="22.22" length="0.33" shape="4977.35,38967.71 4977.44,38967.47"/>
        <lane id=":3801708436_0_3" index="3" allow="private emergency authority army vip passenger hov taxi bus coach delivery truck trailer motorcycle evehicle custom1 custom2" speed="22.22" length="0.33" shape="4980.39,38968.73 4980.42,38968.65"/>
    </edge>
    <edge id=":3801708447_0" function="internal">
        <lane id=":3801708447_0_0" index="0" allow="private emergency authority army vip passenger hov taxi bus coach delivery truck trailer motorcycle evehicle custom1 custom2" speed="22.22" length="0.53" shape="5179.43,39043.72 5179.35,39043.85 5179.29,39043.94 5179.22,39044.02 5179.11,39044.13"/>
    </edge>
    <edge id=":3801708452_0" function="internal">
        <lane id=":3801708452_0_0" index="0" allow="private emergency authority army vip passenger hov taxi bus coach delivery truck trailer motorcycle evehicle custom1 custom2" speed="22.22" length="0.10" shape="5153.40,39071.09 5153.40,39071.09"/>
    </edge>
    <edge id=":4072649431_0" function="internal">
        <lane id=":4072649431_0_0" index="0" allow="private emergency authority army vip passenger hov taxi bus coach delivery truck trailer motorcycle evehicle custom1 custom2" speed="31.29" length="8.21" shape="13578.75,26119.05 13578.15,26121.38 13578.11,26123.07 13578.07,26124.77 13577.47,26127.10"/>
        <lane id=":4072649431_0_1" index="1" allow="private emergency authority army vip passenger hov taxi bus coach delivery truck trailer motorcycle evehicle custom1 custom2" speed="31.29" length="8.21" shape="13575.75,26117.93 13575.15,26120.27 13575.11,26121.96 13575.07,26123.66 13574.47,26125.99"/>
        <lane id=":4072649431_0_2" index="2" allow="private emergency authority army vip passenger hov taxi bus coach delivery truck trailer motorcycle evehicle custom1 custom2" speed="31.29" length="8.21" shape="13572.75,26116.82 13572.15,26119.16 13572.11,26120.85 13572.07,26122.55 13571.47,26124.88"/>
    </edge>
    <edge id=":4072649836_0" function="internal">
        <lane id=":4072649836_0_0" index="0" allow="private emergency authority army vip passenger hov taxi bus coach delivery truck trailer motorcycle evehicle custom1 custom2" speed="31.29" length="8.21" shape="7503.60,35583.47 7504.46,35581.22 7504.69,35579.54 7504.91,35577.86 7505.77,35575.61"/>
        <lane id=":4072649836_0_1" index="1" allow="private emergency authority army vip passenger hov taxi bus coach delivery truck trailer motorcycle evehicle custom1 custom2" speed="31.29" length="8.21" shape="7506.46,35584.91 7507.31,35582.66 7507.54,35580.98 7507.77,35579.30 7508.63,35577.05"/>
        <lane id=":4072649836_0_2" index="2" allow="private emergency authority army vip passenger hov taxi bus coach delivery truck trailer motorcycle evehicle custom1 custom2" speed="31.29" length="8.21" shape="7509.32,35586.35 7510.17,35584.10 7510.40,35582.42 7510.63,35580.74 7511.49,35578.48"/>
    </edge>
    <edge id=":4072649841_0" function="internal">
        <lane id=":4072649841_0_0" index="0" allow="private emergency authority army vip passenger hov taxi bus coach delivery truck trailer motorcycle evehicle custom1 custom2" speed="31.29" length="0.10" shape="7453.72,35675.42 7453.72,35675.42"/>
        <lane id=":4072649841_0_1" index="1" allow="private emergency authority army vip passenger hov taxi bus coach delivery truck trailer motorcycle evehicle custom1 custom2" speed="31.29" length="0.10" shape="7456.58,35676.86 7456.58,35676.86"/>
        <lane id=":4072649841_0_2" index="2" allow="private emergency authority army vip passenger hov taxi bus coach delivery truck trailer motorcycle evehicle custom1 custom2" speed="31.29" length="0.10" shape="7459.44,35678.30 7459.44,35678.30"/>
        <lane id=":4072649841_0_3" index="3" allow="private emergency authority army vip passenger hov taxi bus coach delivery truck trailer motorcycle evehicle custom1 custom2" speed="31.29" length="0.10" shape="7462.30,35679.74 7462.30,35679.74"/>
    </edge>
    <edge id=":4072649843_0" function="internal">
        <lane id=":4072649843_0_0" index="0" allow="private emergency authority army vip passenger hov taxi bus coach delivery truck trailer motorcycle evehicle custom1 custom2" speed="31.29" length="8.21" shape="7478.38,35700.41 7477.53,35702.67 7477.30,35704.34 7477.08,35706.02 7476.23,35708.28"/>
        <lane id=":4072649843_0_1" index="1" allow="private emergency authority army vip passenger hov taxi bus coach delivery truck trailer motorcycle evehicle custom1 custom2" speed="31.29" length="8.21" shape="7478.38,35700.41 7477.08,35702.44 7475.87,35703.63 7474.66,35704.82 7473.37,35706.85"/>